<?xml version="1.0" encoding="UTF-8"?>

<!-- generated on qui 02 abr 2020 16:35:07 -03 by Eclipse SUMO netedit Version v1_5_0+0464-744bef2e7c
<configuration xmlns:xsi="http://www.w3.org/2001/XMLSchema-instance" xsi:noNamespaceSchemaLocation="http://sumo.dlr.de/xsd/netconvertConfiguration.xsd">

    <input>
        <sumo-net-file value="/home/paulo/Documentos/mestrado/pesquisa/urban-medium/v2/manhattan_2km.net.xml"/>
    </input>

    <output>
        <output-file value="/home/paulo/Documentos/mestrado/pesquisa/urban-medium/v2/manhattan_2km.net.xml"/>
    </output>

    <processing>
        <geometry.min-radius.fix.railways value="false"/>
        <geometry.max-grade.fix value="false"/>
        <offset.disable-normalization value="true"/>
        <lefthand value="false"/>
    </processing>

    <junctions>
        <no-turnarounds value="true"/>
        <junctions.corner-detail value="5"/>
        <junctions.limit-turn-speed value="5.5"/>
        <rectangular-lane-cut value="false"/>
    </junctions>

    <pedestrian>
        <walkingareas value="false"/>
    </pedestrian>

    <netedit>
        <route-files value="/home/paulo/Documentos/mestrado/pesquisa/urban-medium/v2/intermediario/manhattan_2km_intermediario.sumo.cfg.rou.xml"/>
    </netedit>

    <report>
        <aggregate-warnings value="5"/>
    </report>

</configuration>
-->

<net version="1.6" junctionCornerDetail="5" limitTurnSpeed="5.50" xmlns:xsi="http://www.w3.org/2001/XMLSchema-instance" xsi:noNamespaceSchemaLocation="http://sumo.dlr.de/xsd/net_file.xsd">

    <location netOffset="-583254.41,-4509124.77" convBoundary="1703.96,780.79,4950.33,2701.30" origBoundary="-74.018085,40.728800,-73.954903,40.757798" projParameter="+proj=utm +zone=18 +ellps=WGS84 +datum=WGS84 +units=m +no_defs"/>

    <type id="highway.bridleway" priority="1" numLanes="1" speed="2.78" allow="pedestrian" oneway="1" width="2.00"/>
    <type id="highway.bus_guideway" priority="1" numLanes="1" speed="27.78" allow="bus" oneway="1"/>
    <type id="highway.cycleway" priority="1" numLanes="1" speed="8.33" allow="bicycle" oneway="0" width="1.00"/>
    <type id="highway.footway" priority="1" numLanes="1" speed="2.78" allow="pedestrian" oneway="1" width="2.00"/>
    <type id="highway.ford" priority="1" numLanes="1" speed="2.78" allow="army" oneway="0"/>
    <type id="highway.living_street" priority="3" numLanes="1" speed="2.78" disallow="tram rail_urban rail rail_electric ship" oneway="0"/>
    <type id="highway.motorway" priority="13" numLanes="2" speed="44.44" allow="private emergency authority army vip passenger hov taxi bus coach delivery truck trailer motorcycle evehicle custom1 custom2" oneway="1"/>
    <type id="highway.motorway_link" priority="12" numLanes="1" speed="22.22" allow="private emergency authority army vip passenger hov taxi bus coach delivery truck trailer motorcycle evehicle custom1 custom2" oneway="1"/>
    <type id="highway.path" priority="1" numLanes="1" speed="2.78" allow="pedestrian bicycle" oneway="1" width="2.00"/>
    <type id="highway.pedestrian" priority="1" numLanes="1" speed="2.78" allow="pedestrian" oneway="1" width="2.00"/>
    <type id="highway.primary" priority="9" numLanes="2" speed="27.78" disallow="tram rail_urban rail rail_electric ship" oneway="0"/>
    <type id="highway.primary_link" priority="8" numLanes="1" speed="22.22" disallow="tram rail_urban rail rail_electric ship" oneway="0"/>
    <type id="highway.raceway" priority="14" numLanes="2" speed="83.33" allow="vip" oneway="0"/>
    <type id="highway.residential" priority="4" numLanes="1" speed="13.89" disallow="tram rail_urban rail rail_electric ship" oneway="0"/>
    <type id="highway.secondary" priority="7" numLanes="2" speed="27.78" disallow="tram rail_urban rail rail_electric ship" oneway="0"/>
    <type id="highway.secondary_link" priority="6" numLanes="1" speed="22.22" disallow="tram rail_urban rail rail_electric ship" oneway="0"/>
    <type id="highway.service" priority="2" numLanes="1" speed="5.56" allow="pedestrian delivery bicycle" oneway="0"/>
    <type id="highway.stairs" priority="1" numLanes="1" speed="1.39" allow="pedestrian" oneway="1" width="2.00"/>
    <type id="highway.step" priority="1" numLanes="1" speed="1.39" allow="pedestrian" oneway="1" width="2.00"/>
    <type id="highway.steps" priority="1" numLanes="1" speed="1.39" allow="pedestrian" oneway="1" width="2.00"/>
    <type id="highway.tertiary" priority="6" numLanes="1" speed="22.22" disallow="tram rail_urban rail rail_electric ship" oneway="0"/>
    <type id="highway.tertiary_link" priority="5" numLanes="1" speed="22.22" disallow="tram rail_urban rail rail_electric ship" oneway="0"/>
    <type id="highway.track" priority="1" numLanes="1" speed="5.56" disallow="tram rail_urban rail rail_electric ship" oneway="0"/>
    <type id="highway.trunk" priority="11" numLanes="2" speed="27.78" disallow="pedestrian bicycle tram rail_urban rail rail_electric ship" oneway="0"/>
    <type id="highway.trunk_link" priority="10" numLanes="1" speed="22.22" disallow="pedestrian bicycle tram rail_urban rail rail_electric ship" oneway="0"/>
    <type id="highway.unclassified" priority="5" numLanes="1" speed="13.89" disallow="tram rail_urban rail rail_electric ship" oneway="0"/>
    <type id="highway.unsurfaced" priority="1" numLanes="1" speed="8.33" disallow="tram rail_urban rail rail_electric ship" oneway="0"/>
    <type id="railway.light_rail" priority="15" numLanes="1" speed="27.78" allow="rail_urban" oneway="1"/>
    <type id="railway.preserved" priority="15" numLanes="1" speed="27.78" allow="rail" oneway="1"/>
    <type id="railway.rail" priority="15" numLanes="1" speed="83.33" allow="rail rail_electric" oneway="1"/>
    <type id="railway.subway" priority="15" numLanes="1" speed="27.78" allow="rail_urban" oneway="1"/>
    <type id="railway.tram" priority="15" numLanes="1" speed="13.89" allow="tram" oneway="1"/>

    <edge id=":1293174689_0" function="internal">
        <lane id=":1293174689_0_0" index="0" disallow="tram rail_urban rail rail_electric rail_fast ship" speed="11.18" length="0.10" shape="3082.98,1508.83 3082.98,1508.83"/>
        <lane id=":1293174689_0_1" index="1" disallow="tram rail_urban rail rail_electric rail_fast ship" speed="11.18" length="0.10" shape="3084.50,1511.65 3084.50,1511.65"/>
    </edge>
    <edge id=":1577321467_0" function="internal">
        <lane id=":1577321467_0_0" index="0" disallow="tram rail_urban rail rail_electric rail_fast ship" speed="13.89" length="0.10" shape="3515.56,2003.48 3515.56,2003.48"/>
    </edge>
    <edge id=":1577321470_0" function="internal">
        <lane id=":1577321470_0_0" index="0" disallow="tram rail_urban rail rail_electric rail_fast ship" speed="27.78" length="0.30" shape="3479.66,1934.81 3479.39,1934.96"/>
        <lane id=":1577321470_0_1" index="1" disallow="tram rail_urban rail rail_electric rail_fast ship" speed="27.78" length="0.30" shape="3478.12,1932.00 3477.87,1932.14"/>
    </edge>
    <edge id=":1729086998_0" function="internal">
        <lane id=":1729086998_0_0" index="0" disallow="tram rail_urban rail rail_electric rail_fast ship" speed="11.18" length="0.28" shape="3257.47,1680.79 3257.22,1680.92"/>
    </edge>
    <edge id=":1729086998_1" function="internal">
        <lane id=":1729086998_1_0" index="0" disallow="tram rail_urban rail rail_electric rail_fast ship" speed="3.65" length="2.34" shape="3257.47,1680.79 3256.03,1680.65 3255.30,1680.14"/>
    </edge>
    <edge id=":1729086998_4" function="internal">
        <lane id=":1729086998_4_0" index="0" disallow="tram rail_urban rail rail_electric rail_fast ship" speed="3.65" length="2.34" shape="3255.30,1680.14 3255.27,1679.24 3255.96,1677.97"/>
    </edge>
    <edge id=":1729086998_2" function="internal">
        <lane id=":1729086998_2_0" index="0" disallow="tram rail_urban rail rail_electric rail_fast ship" speed="11.18" length="0.31" shape="3255.68,1678.12 3255.96,1677.97"/>
    </edge>
    <edge id=":1729086998_3" function="internal">
        <lane id=":1729086998_3_0" index="0" disallow="tram rail_urban rail rail_electric rail_fast ship" speed="3.65" length="2.34" shape="3255.68,1678.12 3257.12,1678.24 3257.85,1678.75"/>
    </edge>
    <edge id=":1729086998_5" function="internal">
        <lane id=":1729086998_5_0" index="0" disallow="tram rail_urban rail rail_electric rail_fast ship" speed="3.65" length="2.34" shape="3257.85,1678.75 3257.89,1679.65 3257.22,1680.92"/>
    </edge>
    <edge id=":1729087000_0" function="internal">
        <lane id=":1729087000_0_0" index="0" disallow="tram rail_urban rail rail_electric rail_fast ship" speed="11.18" length="0.27" shape="3237.73,1691.60 3237.49,1691.73"/>
    </edge>
    <edge id=":1729087000_1" function="internal">
        <lane id=":1729087000_1_0" index="0" disallow="tram rail_urban rail rail_electric rail_fast ship" speed="3.65" length="4.67" shape="3237.73,1691.60 3236.29,1691.48 3235.55,1690.97 3235.52,1690.08 3236.19,1688.80"/>
    </edge>
    <edge id=":1729087000_2" function="internal">
        <lane id=":1729087000_2_0" index="0" disallow="tram rail_urban rail rail_electric rail_fast ship" speed="11.18" length="0.31" shape="3235.92,1688.95 3236.19,1688.80"/>
    </edge>
    <edge id=":1729087000_3" function="internal">
        <lane id=":1729087000_3_0" index="0" disallow="tram rail_urban rail rail_electric rail_fast ship" speed="3.65" length="4.67" shape="3235.92,1688.95 3237.35,1689.05 3238.10,1689.55 3238.14,1690.45 3237.49,1691.73"/>
    </edge>
    <edge id=":2302133933_0" function="internal">
        <lane id=":2302133933_0_0" index="0" disallow="tram rail_urban rail rail_electric rail_fast ship" speed="6.51" length="9.01" shape="2544.20,1360.05 2542.74,1358.07 2540.99,1357.03 2538.95,1356.93 2536.63,1357.77"/>
    </edge>
    <edge id=":2302133933_1" function="internal">
        <lane id=":2302133933_1_0" index="0" disallow="tram rail_urban rail rail_electric rail_fast ship" speed="11.18" length="11.16" shape="2544.20,1360.05 2538.91,1350.22"/>
        <lane id=":2302133933_1_1" index="1" disallow="tram rail_urban rail rail_electric rail_fast ship" speed="11.18" length="11.16" shape="2547.02,1358.53 2541.73,1348.71"/>
    </edge>
    <edge id=":2307164619_0" function="internal">
        <lane id=":2307164619_0_0" index="0" disallow="tram rail_urban rail rail_electric rail_fast ship" speed="11.18" length="0.30" shape="1944.43,1767.28 1944.69,1767.14"/>
    </edge>
    <edge id=":2307164622_0" function="internal">
        <lane id=":2307164622_0_0" index="0" disallow="tram rail_urban rail rail_electric rail_fast ship" speed="11.18" length="0.10" shape="1977.81,1837.64 1977.81,1837.64"/>
    </edge>
    <edge id=":2307164623_0" function="internal">
        <lane id=":2307164623_0_0" index="0" disallow="tram rail_urban rail rail_electric rail_fast ship" speed="11.18" length="0.10" shape="1991.16,1830.41 1991.16,1830.41"/>
    </edge>
    <edge id=":2307164625_0" function="internal">
        <lane id=":2307164625_0_0" index="0" disallow="tram rail_urban rail rail_electric rail_fast ship" speed="11.18" length="0.30" shape="1953.71,1762.28 1953.97,1762.14"/>
    </edge>
    <edge id=":2384399605_0" function="internal">
        <lane id=":2384399605_0_0" index="0" disallow="tram rail_urban rail rail_electric rail_fast ship" speed="11.18" length="0.28" shape="3025.96,1007.13 3025.71,1007.26"/>
    </edge>
    <edge id=":2384399605_1" function="internal">
        <lane id=":2384399605_1_0" index="0" disallow="tram rail_urban rail rail_electric rail_fast ship" speed="3.65" length="2.34" shape="3025.96,1007.13 3024.52,1006.99 3023.79,1006.48"/>
    </edge>
    <edge id=":2384399605_4" function="internal">
        <lane id=":2384399605_4_0" index="0" disallow="tram rail_urban rail rail_electric rail_fast ship" speed="3.65" length="2.34" shape="3023.79,1006.48 3023.76,1005.58 3024.45,1004.31"/>
    </edge>
    <edge id=":2384399605_2" function="internal">
        <lane id=":2384399605_2_0" index="0" disallow="tram rail_urban rail rail_electric rail_fast ship" speed="11.18" length="0.31" shape="3024.17,1004.46 3024.45,1004.31"/>
    </edge>
    <edge id=":2384399605_3" function="internal">
        <lane id=":2384399605_3_0" index="0" disallow="tram rail_urban rail rail_electric rail_fast ship" speed="3.65" length="2.34" shape="3024.17,1004.46 3025.61,1004.58 3026.34,1005.09"/>
    </edge>
    <edge id=":2384399605_5" function="internal">
        <lane id=":2384399605_5_0" index="0" disallow="tram rail_urban rail rail_electric rail_fast ship" speed="3.65" length="2.34" shape="3026.34,1005.09 3026.38,1005.99 3025.71,1007.26"/>
    </edge>
    <edge id=":2562399792_0" function="internal">
        <lane id=":2562399792_0_0" index="0" disallow="tram rail_urban rail rail_electric rail_fast ship" speed="11.18" length="0.35" shape="2987.01,935.20 2986.66,935.39"/>
        <lane id=":2562399792_0_1" index="1" disallow="tram rail_urban rail rail_electric rail_fast ship" speed="11.18" length="0.35" shape="2985.48,932.39 2985.21,932.54"/>
    </edge>
    <edge id=":2562399792_2" function="internal">
        <lane id=":2562399792_2_0" index="0" disallow="tram rail_urban rail rail_electric rail_fast ship" speed="3.65" length="2.34" shape="2985.48,932.39 2984.04,932.26 2983.31,931.75"/>
    </edge>
    <edge id=":2562399792_6" function="internal">
        <lane id=":2562399792_6_0" index="0" disallow="tram rail_urban rail rail_electric rail_fast ship" speed="3.65" length="2.34" shape="2983.31,931.75 2983.28,930.86 2983.95,929.58"/>
    </edge>
    <edge id=":2562399792_3" function="internal">
        <lane id=":2562399792_3_0" index="0" disallow="tram rail_urban rail rail_electric rail_fast ship" speed="11.18" length="0.18" shape="2982.30,926.83 2982.42,926.77"/>
        <lane id=":2562399792_3_1" index="1" disallow="tram rail_urban rail rail_electric rail_fast ship" speed="11.18" length="0.18" shape="2983.76,929.68 2983.95,929.58"/>
    </edge>
    <edge id=":2562399792_5" function="internal">
        <lane id=":2562399792_5_0" index="0" disallow="tram rail_urban rail rail_electric rail_fast ship" speed="3.65" length="2.34" shape="2983.76,929.68 2985.19,929.85 2985.91,930.38"/>
    </edge>
    <edge id=":2562399792_7" function="internal">
        <lane id=":2562399792_7_0" index="0" disallow="tram rail_urban rail rail_electric rail_fast ship" speed="3.65" length="2.34" shape="2985.91,930.38 2985.92,931.28 2985.21,932.54"/>
    </edge>
    <edge id=":2562399793_0" function="internal">
        <lane id=":2562399793_0_0" index="0" disallow="tram rail_urban rail rail_electric rail_fast ship" speed="11.18" length="0.30" shape="3062.22,1074.83 3061.96,1074.97"/>
    </edge>
    <edge id=":2704112725_0" function="internal">
        <lane id=":2704112725_0_0" index="0" disallow="tram rail_urban rail rail_electric rail_fast ship" speed="11.18" length="0.30" shape="3174.53,1282.93 3174.27,1283.07"/>
    </edge>
    <edge id=":2704112780_0" function="internal">
        <lane id=":2704112780_0_0" index="0" disallow="tram rail_urban rail rail_electric rail_fast ship" speed="11.18" length="0.30" shape="3210.54,1351.12 3210.28,1351.26"/>
    </edge>
    <edge id=":274681226_0" function="internal">
        <lane id=":274681226_0_0" index="0" disallow="tram rail_urban rail rail_electric rail_fast ship" speed="11.18" length="0.29" shape="2103.56,1461.83 2103.55,1461.79 2103.55,1461.76 2103.54,1461.73 2103.53,1461.69"/>
        <lane id=":274681226_0_1" index="1" disallow="tram rail_urban rail rail_electric rail_fast ship" speed="11.18" length="0.29" shape="2106.72,1461.35 2106.70,1461.22 2106.69,1461.14 2106.67,1461.05 2106.64,1460.93"/>
    </edge>
    <edge id=":3008856931_0" function="internal">
        <lane id=":3008856931_0_0" index="0" disallow="tram rail_urban rail rail_electric rail_fast ship" speed="11.18" length="1.87" shape="2122.30,1581.51 2120.65,1582.38"/>
    </edge>
    <edge id=":3430331121_0" function="internal">
        <lane id=":3430331121_0_0" index="0" disallow="tram rail_urban rail rail_electric rail_fast ship" speed="3.65" length="4.67" shape="2904.73,1068.55 2906.16,1068.68 2906.90,1069.20 2906.93,1070.09 2906.25,1071.37"/>
    </edge>
    <edge id=":3430331122_0" function="internal">
        <lane id=":3430331122_0_0" index="0" disallow="tram rail_urban rail rail_electric rail_fast ship" speed="3.65" length="4.67" shape="2968.92,1038.33 2967.48,1038.21 2966.75,1037.70 2966.71,1036.80 2967.38,1035.53"/>
    </edge>
    <edge id=":3601295762_0" function="internal">
        <lane id=":3601295762_0_0" index="0" disallow="tram rail_urban rail rail_electric rail_fast ship" speed="11.18" length="0.30" shape="3003.06,936.56 3003.20,936.83"/>
        <lane id=":3601295762_0_1" index="1" disallow="tram rail_urban rail rail_electric rail_fast ship" speed="11.18" length="0.30" shape="3000.20,937.99 3000.34,938.26"/>
    </edge>
    <edge id=":3686061898_0" function="internal">
        <lane id=":3686061898_0_0" index="0" disallow="tram rail_urban rail rail_electric rail_fast ship" speed="11.18" length="0.30" shape="2924.83,787.47 2924.97,787.74"/>
        <lane id=":3686061898_0_1" index="1" disallow="tram rail_urban rail rail_electric rail_fast ship" speed="11.18" length="0.30" shape="2922.01,788.98 2922.15,789.25"/>
    </edge>
    <edge id=":3686062427_0" function="internal">
        <lane id=":3686062427_0_0" index="0" disallow="tram rail_urban rail rail_electric rail_fast ship" speed="11.18" length="0.30" shape="2961.64,856.57 2961.78,856.83"/>
        <lane id=":3686062427_0_1" index="1" disallow="tram rail_urban rail rail_electric rail_fast ship" speed="11.18" length="0.30" shape="2958.80,858.05 2958.94,858.31"/>
    </edge>
    <edge id=":3686062432_0" function="internal">
        <lane id=":3686062432_0_0" index="0" disallow="tram rail_urban rail rail_electric rail_fast ship" speed="11.18" length="2.95" shape="2792.80,1046.30 2791.42,1043.69"/>
        <lane id=":3686062432_0_1" index="1" disallow="tram rail_urban rail rail_electric rail_fast ship" speed="11.18" length="2.95" shape="2795.63,1044.82 2794.25,1042.20"/>
        <lane id=":3686062432_0_2" index="2" disallow="tram rail_urban rail rail_electric rail_fast ship" speed="11.18" length="2.95" shape="2798.46,1043.33 2797.09,1040.71"/>
        <lane id=":3686062432_0_3" index="3" disallow="tram rail_urban rail rail_electric rail_fast ship" speed="11.18" length="2.95" shape="2801.29,1041.84 2799.92,1039.22"/>
    </edge>
    <edge id=":3747282386_0" function="internal">
        <lane id=":3747282386_0_0" index="0" disallow="tram rail_urban rail rail_electric rail_fast ship" speed="11.18" length="0.22" shape="2125.52,1888.91 2125.50,1888.69"/>
    </edge>
    <edge id=":3786901743_0" function="internal">
        <lane id=":3786901743_0_0" index="0" disallow="tram rail_urban rail rail_electric rail_fast ship" speed="7.26" length="11.64" shape="2759.01,2053.02 2757.11,2054.67 2756.36,2056.93 2756.76,2059.81 2758.32,2063.31"/>
    </edge>
    <edge id=":3786901743_1" function="internal">
        <lane id=":3786901743_1_0" index="0" disallow="tram rail_urban rail rail_electric rail_fast ship" speed="7.26" length="11.64" shape="2759.01,2053.02 2757.11,2054.67 2756.36,2056.93 2756.76,2059.81 2758.32,2063.31"/>
    </edge>
    <edge id=":3786901743_2" function="internal">
        <lane id=":3786901743_2_0" index="0" disallow="tram rail_urban rail rail_electric rail_fast ship" speed="11.18" length="14.90" shape="2759.01,2053.02 2755.39,2055.54 2753.34,2057.90 2751.30,2060.25 2747.68,2062.77"/>
        <lane id=":3786901743_2_1" index="1" disallow="tram rail_urban rail rail_electric rail_fast ship" speed="11.18" length="14.90" shape="2757.49,2050.21 2753.87,2052.73 2751.83,2055.08 2749.78,2057.43 2746.16,2059.95"/>
        <lane id=":3786901743_2_2" index="2" disallow="tram rail_urban rail rail_electric rail_fast ship" speed="11.18" length="14.90" shape="2757.49,2050.21 2744.64,2057.14"/>
    </edge>
    <edge id=":3786901743_5" function="internal">
        <lane id=":3786901743_5_0" index="0" disallow="tram rail_urban rail rail_electric rail_fast ship" speed="7.41" length="11.91" shape="2745.10,2039.56 2747.30,2042.77 2749.59,2044.68 2751.97,2045.28 2754.45,2044.57"/>
    </edge>
    <edge id=":3786901743_6" function="internal">
        <lane id=":3786901743_6_0" index="0" disallow="tram rail_urban rail rail_electric rail_fast ship" speed="11.18" length="27.18" shape="2745.10,2039.56 2758.32,2063.31"/>
    </edge>
    <edge id=":3786901743_7" function="internal">
        <lane id=":3786901743_7_0" index="0" disallow="tram rail_urban rail rail_electric rail_fast ship" speed="11.18" length="27.20" shape="2742.30,2041.11 2755.52,2064.87"/>
    </edge>
    <edge id=":3786901743_8" function="internal">
        <lane id=":3786901743_8_0" index="0" disallow="tram rail_urban rail rail_electric rail_fast ship" speed="11.18" length="27.20" shape="2742.30,2041.11 2755.52,2064.87"/>
    </edge>
    <edge id=":3786901743_9" function="internal">
        <lane id=":3786901743_9_0" index="0" disallow="tram rail_urban rail rail_electric rail_fast ship" speed="11.18" length="15.06" shape="2740.08,2048.69 2744.18,2047.05 2747.27,2046.63 2750.36,2046.21 2754.45,2044.57"/>
        <lane id=":3786901743_9_1" index="1" disallow="tram rail_urban rail rail_electric rail_fast ship" speed="11.18" length="15.06" shape="2741.60,2051.50 2745.70,2049.86 2748.79,2049.45 2751.88,2049.03 2755.97,2047.39"/>
    </edge>
    <edge id=":3786901743_11" function="internal">
        <lane id=":3786901743_11_0" index="0" disallow="tram rail_urban rail rail_electric rail_fast ship" speed="8.89" length="3.45" shape="2743.12,2054.32 2745.77,2053.97 2746.45,2054.34"/>
    </edge>
    <edge id=":3786901743_12" function="internal">
        <lane id=":3786901743_12_0" index="0" disallow="tram rail_urban rail rail_electric rail_fast ship" speed="8.89" length="3.45" shape="2743.12,2054.32 2745.77,2053.97 2746.45,2054.34"/>
    </edge>
    <edge id=":3786901743_13" function="internal">
        <lane id=":3786901743_13_0" index="0" disallow="tram rail_urban rail rail_electric rail_fast ship" speed="8.89" length="14.13" shape="2746.45,2054.34 2748.72,2055.61 2751.97,2059.25 2755.52,2064.87"/>
    </edge>
    <edge id=":3786901743_14" function="internal">
        <lane id=":3786901743_14_0" index="0" disallow="tram rail_urban rail rail_electric rail_fast ship" speed="8.89" length="14.13" shape="2746.45,2054.34 2748.72,2055.61 2751.97,2059.25 2755.52,2064.87"/>
    </edge>
    <edge id=":3789563970_0" function="internal">
        <lane id=":3789563970_0_0" index="0" disallow="tram rail_urban rail rail_electric rail_fast ship" speed="11.18" length="0.10" shape="2827.19,1736.57 2827.19,1736.57"/>
    </edge>
    <edge id=":3832902958_0" function="internal">
        <lane id=":3832902958_0_0" index="0" disallow="tram rail_urban rail rail_electric rail_fast ship" speed="11.18" length="0.30" shape="2784.74,1580.81 2784.48,1580.95"/>
    </edge>
    <edge id=":3832902959_0" function="internal">
        <lane id=":3832902959_0_0" index="0" disallow="tram rail_urban rail rail_electric rail_fast ship" speed="11.18" length="0.30" shape="2808.73,1567.87 2808.47,1568.01"/>
    </edge>
    <edge id=":3833309813_0" function="internal">
        <lane id=":3833309813_0_0" index="0" disallow="tram rail_urban rail rail_electric rail_fast ship" speed="11.18" length="0.26" shape="2125.67,2213.34 2125.82,2213.61"/>
        <lane id=":3833309813_0_1" index="1" disallow="tram rail_urban rail rail_electric rail_fast ship" speed="11.18" length="0.26" shape="2122.90,2214.93 2123.00,2215.12"/>
    </edge>
    <edge id=":3839412209_0" function="internal">
        <lane id=":3839412209_0_0" index="0" disallow="tram rail_urban rail rail_electric rail_fast ship" speed="11.18" length="0.10" shape="3312.75,1515.47 3312.75,1515.47"/>
        <lane id=":3839412209_0_1" index="1" disallow="tram rail_urban rail rail_electric rail_fast ship" speed="11.18" length="0.10" shape="3309.93,1516.99 3309.93,1516.99"/>
    </edge>
    <edge id=":3841254263_0" function="internal">
        <lane id=":3841254263_0_0" index="0" disallow="tram rail_urban rail rail_electric rail_fast ship" speed="11.18" length="0.10" shape="2972.22,1744.65 2972.22,1744.65"/>
        <lane id=":3841254263_0_1" index="1" disallow="tram rail_urban rail rail_electric rail_fast ship" speed="11.18" length="0.10" shape="2973.73,1747.47 2973.73,1747.47"/>
        <lane id=":3841254263_0_2" index="2" disallow="tram rail_urban rail rail_electric rail_fast ship" speed="11.18" length="0.10" shape="2975.24,1750.29 2975.24,1750.29"/>
    </edge>
    <edge id=":3841324404_0" function="internal">
        <lane id=":3841324404_0_0" index="0" disallow="tram rail_urban rail rail_electric rail_fast ship" speed="11.18" length="0.10" shape="3019.57,1810.38 3019.57,1810.38"/>
    </edge>
    <edge id=":3847026391_0" function="internal">
        <lane id=":3847026391_0_0" index="0" disallow="tram rail_urban rail rail_electric rail_fast ship" speed="11.18" length="0.10" shape="2746.15,1867.35 2746.15,1867.35"/>
        <lane id=":3847026391_0_1" index="1" disallow="tram rail_urban rail rail_electric rail_fast ship" speed="11.18" length="0.10" shape="2747.66,1870.17 2747.66,1870.17"/>
        <lane id=":3847026391_0_2" index="2" disallow="tram rail_urban rail rail_electric rail_fast ship" speed="11.18" length="0.10" shape="2749.17,1872.99 2749.17,1872.99"/>
    </edge>
    <edge id=":3847026393_0" function="internal">
        <lane id=":3847026393_0_0" index="0" disallow="tram rail_urban rail rail_electric rail_fast ship" speed="11.18" length="0.10" shape="2784.25,1938.13 2784.25,1938.13"/>
    </edge>
    <edge id=":3871072002_0" function="internal">
        <lane id=":3871072002_0_0" index="0" disallow="tram rail_urban rail rail_electric rail_fast ship" speed="11.18" length="0.30" shape="3346.72,1578.33 3346.86,1578.60"/>
        <lane id=":3871072002_0_1" index="1" disallow="tram rail_urban rail rail_electric rail_fast ship" speed="11.18" length="0.30" shape="3343.90,1579.85 3344.04,1580.11"/>
    </edge>
    <edge id=":3903014639_0" function="internal">
        <lane id=":3903014639_0_0" index="0" disallow="tram rail_urban rail rail_electric rail_fast ship" speed="11.18" length="0.10" shape="2670.82,1374.64 2670.82,1374.64"/>
    </edge>
    <edge id=":3903014640_0" function="internal">
        <lane id=":3903014640_0_0" index="0" disallow="tram rail_urban rail rail_electric rail_fast ship" speed="11.18" length="0.30" shape="2709.67,1442.72 2709.41,1442.86"/>
    </edge>
    <edge id=":390519635_0" function="internal">
        <lane id=":390519635_0_0" index="0" disallow="tram rail_urban rail rail_electric rail_fast ship" speed="6.52" length="9.05" shape="2519.82,1002.75 2518.34,1000.75 2516.58,999.70 2514.54,999.60 2512.22,1000.44"/>
    </edge>
    <edge id=":390519635_1" function="internal">
        <lane id=":390519635_1_0" index="0" disallow="tram rail_urban rail rail_electric rail_fast ship" speed="3.65" length="2.74" shape="2525.45,999.71 2525.59,998.28 2526.10,997.54 2526.50,997.53"/>
    </edge>
    <edge id=":390519635_6" function="internal">
        <lane id=":390519635_6_0" index="0" disallow="tram rail_urban rail rail_electric rail_fast ship" speed="3.65" length="1.93" shape="2526.50,997.53 2526.99,997.52 2528.27,998.19"/>
    </edge>
    <edge id=":390519635_2" function="internal">
        <lane id=":390519635_2_0" index="0" disallow="tram rail_urban rail rail_electric rail_fast ship" speed="6.51" length="9.03" shape="2536.18,987.57 2534.18,989.04 2533.14,990.80 2533.05,992.83 2533.90,995.16"/>
    </edge>
    <edge id=":390519635_3" function="internal">
        <lane id=":390519635_3_0" index="0" disallow="tram rail_urban rail rail_electric rail_fast ship" speed="7.32" length="11.73" shape="2536.18,987.57 2532.95,989.70 2531.03,991.93 2530.40,994.26 2531.08,996.68"/>
    </edge>
    <edge id=":390519635_4" function="internal">
        <lane id=":390519635_4_0" index="0" disallow="tram rail_urban rail rail_electric rail_fast ship" speed="8.10" length="14.57" shape="2536.18,987.57 2531.72,990.37 2528.91,993.07 2527.76,995.68 2528.27,998.19"/>
    </edge>
    <edge id=":390519635_5" function="internal">
        <lane id=":390519635_5_0" index="0" disallow="tram rail_urban rail rail_electric rail_fast ship" speed="11.18" length="27.20" shape="2536.18,987.57 2512.22,1000.44"/>
    </edge>
    <edge id=":3934635613_0" function="internal">
        <lane id=":3934635613_0_0" index="0" disallow="tram rail_urban rail rail_electric rail_fast ship" speed="11.18" length="0.10" shape="2942.77,1957.69 2942.77,1957.69"/>
        <lane id=":3934635613_0_1" index="1" disallow="tram rail_urban rail rail_electric rail_fast ship" speed="11.18" length="0.10" shape="2941.26,1954.87 2941.26,1954.87"/>
        <lane id=":3934635613_0_2" index="2" disallow="tram rail_urban rail rail_electric rail_fast ship" speed="11.18" length="0.10" shape="2939.75,1952.05 2939.75,1952.05"/>
    </edge>
    <edge id=":3934635613_3" function="internal">
        <lane id=":3934635613_3_0" index="0" disallow="tram rail_urban rail rail_electric rail_fast ship" speed="3.65" length="2.34" shape="2939.75,1952.05 2938.31,1951.91 2937.58,1951.40"/>
    </edge>
    <edge id=":3934635613_8" function="internal">
        <lane id=":3934635613_8_0" index="0" disallow="tram rail_urban rail rail_electric rail_fast ship" speed="3.65" length="2.34" shape="2937.58,1951.40 2937.55,1950.50 2938.23,1949.23"/>
    </edge>
    <edge id=":3934635613_4" function="internal">
        <lane id=":3934635613_4_0" index="0" disallow="tram rail_urban rail rail_electric rail_fast ship" speed="11.18" length="0.10" shape="2935.21,1943.59 2935.21,1943.59"/>