<?xml version="1.0" encoding="UTF-8"?>
<!-- generated on 2021-12-07 11:49:58.226443 by $Id$ v1_7_0+0685-294ce9332e
  options: -n ../../manhattan_2km.net.xml <doubleminus>trip-attributes=type="pType_0" <doubleminus>additional-file type-ped.add.xml -r manhattanPed.rou.xml -b 0 -e 1 -p 0.02 <doubleminus>persontrips
-->
<routes xmlns:xsi="http://www.w3.org/2001/XMLSchema-instance" xsi:noNamespaceSchemaLocation="http://sumo.dlr.de/xsd/routes_file.xsd">
    <person id="0" depart="0.00" type="pType_0">
        <personTrip from="483236728#6" to="-420872204"/>
    </person>
    <person id="1" depart="0.02" type="pType_0">
        <personTrip from="382532607#1" to="226041019"/>
    </person>
    <person id="2" depart="0.04" type="pType_0">
        <personTrip from="543717203#3" to="496983399#1"/>
    </person>
    <person id="3" depart="0.06" type="pType_0">
        <personTrip from="587061854" to="144001605#1"/>
    </person>
    <person id="4" depart="0.08" type="pType_0">
        <personTrip from="438385431#4" to="-420904659"/>
    </person>
    <person id="5" depart="0.10" type="pType_0">
        <personTrip from="226041001#4" to="460606347#0"/>
    </person>
    <person id="6" depart="0.12" type="pType_0">
        <personTrip from="-420872209" to="226040998#0"/>
    </person>
    <person id="7" depart="0.14" type="pType_0">
        <personTrip from="489019752#0" to="464515614#1"/>
    </person>
    <person id="8" depart="0.16" type="pType_0">
        <personTrip from="226041001#5" to="46469732#0"/>
    </person>
    <person id="9" depart="0.18" type="pType_0">
        <personTrip from="5671401#4" to="-335935798#1"/>
    </person>
    <person id="10" depart="0.20" type="pType_0">
        <personTrip from="5671401#12" to="527867881#0"/>
    </person>
    <person id="11" depart="0.22" type="pType_0">
        <personTrip from="420499931#0" to="222299248#0"/>
    </person>
    <person id="12" depart="0.24" type="pType_0">
        <personTrip from="663499009#1" to="415849235#2"/>
    </person>
    <person id="13" depart="0.26" type="pType_0">
        <personTrip from="157014136#1" to="157014137#0"/>
    </person>
    <person id="14" depart="0.28" type="pType_0">
        <personTrip from="5672273#1" to="465101198#0"/>
    </person>
    <person id="15" depart="0.30" type="pType_0">
        <personTrip from="5671401#3" to="542257009#2"/>
    </person>
    <person id="16" depart="0.32" type="pType_0">
        <personTrip from="46334599#1" to="68668541#0"/>
    </person>
    <person id="17" depart="0.34" type="pType_0">
        <personTrip from="420872201#2" to="464683319"/>
    </person>
    <person id="18" depart="0.36" type="pType_0">
        <personTrip from="5671774#14" to="46581216#2"/>
    </person>
    <person id="19" depart="0.38" type="pType_0">
        <personTrip from="5672965#2" to="46469720#1"/>
    </person>
    <person id="20" depart="0.40" type="pType_0">
        <personTrip from="527867887#2" to="-496982022#0"/>
    </person>
    <person id="21" depart="0.42" type="pType_0">
        <personTrip from="335935797#0" to="385106581#1"/>
    </person>
    <person id="22" depart="0.44" type="pType_0">
        <personTrip from="118400729#12" to="335935799#0"/>
    </person>
    <person id="23" depart="0.46" type="pType_0">
        <personTrip from="157014137#2" to="382535022#0"/>
    </person>
    <person id="24" depart="0.48" type="pType_0">
        <personTrip from="483236728#4" to="420872186"/>
    </person>
    <person id="25" depart="0.50" type="pType_0">
        <personTrip from="420872191" to="226041000#3"/>
    </person>
    <person id="26" depart="0.52" type="pType_0">
        <personTrip from="381477008#0" to="630828585#0"/>
    </person>
    <person id="27" depart="0.54" type="pType_0">
        <personTrip from="483704512#0" to="46520833#3"/>
    </person>
    <person id="28" depart="0.56" type="pType_0">
        <personTrip from="222299276#8" to="542257009#2"/>
    </person>
    <person id="29" depart="0.58" type="pType_0">
        <personTrip from="222299276#2" to="420872201#2"/>
    </person>
    <person id="30" depart="0.60" type="pType_0">
        <personTrip from="68674968#1" to="483236728#6"/>
    </person>
    <person id="31" depart="0.62" type="pType_0">
        <personTrip from="464683322" to="518451327#1"/>
    </person>
    <person id="32" depart="0.64" type="pType_0">
        <personTrip from="5672211#3" to="5670673#1"/>
    </person>
    <person id="33" depart="0.66" type="pType_0">
        <personTrip from="335935797#1" to="-428569356"/>
    </person>
    <person id="34" depart="0.68" type="pType_0">
        <personTrip from="388240124#3" to="381480256#1"/>
    </person>
    <person id="35" depart="0.70" type="pType_0">
        <personTrip from="226041000#4" to="630828586#1"/>
    </person>
    <person id="36" depart="0.72" type="pType_0">
        <personTrip from="5673626#1" to="388240124#3"/>
    </person>
    <person id="37" depart="0.74" type="pType_0">
        <personTrip from="489019752#3" to="420904660#2"/>
    </person>
    <person id="38" depart="0.76" type="pType_0">
        <personTrip from="602266745#6" to="458166892#0"/>
    </person>
    <person id="39" depart="0.78" type="pType_0">
        <personTrip from="381477004#0" to="368938760#0"/>
    </person>
    <person id="40" depart="0.80" type="pType_0">
        <personTrip from="464683336" to="381474197#1"/>
    </person>
    <person id="41" depart="0.82" type="pType_0">
        <personTrip from="46469731#1" to="588168464"/>
    </person>
    <person id="42" depart="0.84" type="pType_0">
        <personTrip from="421852618#1" to="226041001#4"/>
    </person>
    <person id="43" depart="0.86" type="pType_0">
        <personTrip from="690414969" to="460606348#1"/>
    </person>
    <person id="44" depart="0.88" type="pType_0">
        <personTrip from="144001606#1" to="-526571477#1"/>
    </person>
    <person id="45" depart="0.90" type="pType_0">
        <personTrip from="194923807#3" to="483236728#0"/>
    </person>
    <person id="46" depart="0.92" type="pType_0">
        <personTrip from="5671349#2" to="438385431#4"/>
    </person>
    <person id="47" depart="0.94" type="pType_0">
        <personTrip from="-5672190#2" to="420872204"/>
    </person>
    <person id="48" depart="0.96" type="pType_0">
        <personTrip from="68674968#4" to="46334598#2"/>
    </person>
    <person id="49" depart="0.98" type="pType_0">
        <personTrip from="68668519#1" to="5672487#7"/>
    </person>
</routes>
