<?xml version="1.0" encoding="UTF-8"?>

<!-- generated on ter 01 fev 2022 21:53:51 by Eclipse SUMO netedit Version v1_7_0+0685-294ce9332e
<configuration xmlns:xsi="http://www.w3.org/2001/XMLSchema-instance" xsi:noNamespaceSchemaLocation="http://sumo.dlr.de/xsd/netconvertConfiguration.xsd">

    <input>
        <sumo-net-file value="/home/paulo/Documentos/mestrado/pesquisa/urban-medium/v2/manhattan_2km.net.xml"/>
    </input>

    <output>
        <output-file value="/home/paulo/Documentos/mestrado/pesquisa/urban-medium/v2/manhattan_2km.net.xml"/>
    </output>

    <processing>
        <geometry.min-radius.fix.railways value="false"/>
        <geometry.max-grade.fix value="false"/>
        <offset.disable-normalization value="true"/>
        <lefthand value="false"/>
    </processing>

    <junctions>
        <no-turnarounds value="true"/>
        <junctions.corner-detail value="5"/>
        <junctions.limit-turn-speed value="5.5"/>
        <rectangular-lane-cut value="false"/>
    </junctions>

    <pedestrian>
        <walkingareas value="false"/>
    </pedestrian>

    <netedit>
        <route-files value="/home/paulo/Documentos/mestrado/pesquisa/urban-medium/v2/pedestrians/medio/demand.rou.xml"/>
    </netedit>

    <report>
        <aggregate-warnings value="5"/>
    </report>

</configuration>
-->

<routes xmlns:xsi="http://www.w3.org/2001/XMLSchema-instance" xsi:noNamespaceSchemaLocation="http://sumo.dlr.de/xsd/routes_file.xsd">
    <vType id="myType" maxSpeed="13.80" vClass="passenger"/>
    <vType id="vType_0" maxSpeed="16.00"/>
    <vType id="pType_0" vClass="pedestrian"/>
    <person id="0" type="pType_0" depart="0.00">
        <walk edges="483236728#6 458166897#1 458166897#0 380147339 381477008#0 46469729 157014137#0 157014137#1 157014137#2 421852618#0 421852618#1 420872188#1 420872204 -420872204"/>
    </person>
    <person id="1" type="pType_0" depart="0.00">
        <walk edges="382532607#1 5672965#3 5672965#2 491162341#1 167923358#0 46581216#6 46581216#5 46581216#4 46581216#3 46581216#2 226041019"/>
    </person>
    <vehicle id="0" type="myType" depart="0.00">
        <route edges="5671401#6 388240124#9 388240124#12 388240124#15 388240124#18 388240124#21 587061869#0 587061869#2 554083353#0 554083353#2 46469722 421852619#1 421852619#2 46334595#0 46334595#1 381480256#1 144001605#3 420872177 368938760#0 368938760#1 664660185" color="yellow"/>
    </vehicle>
    <vehicle id="1" type="myType" depart="0.00">
        <route edges="630828585#1 630828585#2 46334600#0 5669875#0 5669875#1 5669875#2 464683321 428569470#0 428569470#2 428569470#4" color="yellow"/>
    </vehicle>
    <person id="2" type="pType_0" depart="0.01">
        <walk edges="543717203#3 543717203#2 483704511#1 68668552#1 587061854 464515614#3 464515614#2 464515614#1 464515614#0 588168464 195743343#1 195743343#0 458166892#1 496983399#0 496983399#1"/>
    </person>
    <person id="3" type="pType_0" depart="0.01">
        <walk edges="587061854 464515614#3 5671401#0 196117042#2 447001272#0 447001272#1 447001272#2 420499932#0 46520833#1 389590214#1 5673380#2 571651963 -542096278#2 542096278#0 587038129#0 420872212 -420872209 5670317#7 5670317#5 144001605#1"/>
    </person>
    <person id="4" type="pType_0" depart="0.01">
        <walk edges="438385431#4 438385431#5 420496529 458166892#0 458166892#1 -420904659"/>
    </person>
    <vehicle id="2" type="myType" depart="0.01">
        <route edges="420904660#1 420904660#2 384649120#2 542257009#1 542257009#2 542257009#4 542257009#5 438385431#5 420496529 458166892#0 458166892#1 195743343#0 195743343#1 588168464 464515614#0 464515614#1 464515614#2 464515614#3 587061854 68668552#1 483704511#1 543717203#2 543717203#3 526571477#1 526571477#2" color="yellow"/>
    </vehicle>
    <vehicle id="3" type="myType" depart="0.01">
        <route edges="496982024#0 -496982022#0 195743343#0 195743343#1 588168464 464515614#0 464515614#1 464515614#2 464515614#3 587061854 68668552#1 483704511#1 543717203#2 543717203#3 34080174#1 456308943#1" color="yellow"/>
    </vehicle>
    <vehicle id="4" type="myType" depart="0.01">
        <route edges="489019752#2 489019752#3 489019752#4 68668519#0 68668519#1 460606348#1 415849235#1 415849235#2 5671693#0 195743165#0 385668565#0 385668565#1 385668565#2 385668565#3 388240124#21" color="yellow"/>
    </vehicle>
    <person id="5" type="pType_0" depart="0.02">
        <walk edges="226041001#4 226041001#5 36806906#0 384649120#3 384649120#2 384649120#1 587038081#1 496983396#0 496983397#1 496982024#0 439933932#1 460606347#2 460606347#1 460606347#0"/>
    </person>
    <person id="6" type="pType_0" depart="0.02">
        <walk edges="-420872209 420872212 587038129#0 542096278#0 -542096278#2 571651963 5673380#2 389590214#1 573476359#1 447001270 464683341#0 226040998#0"/>
    </person>
    <vehicle id="5" type="myType" depart="0.02">
        <route edges="68668519#0 68668519#1 460606348#1 693345069#1 46581216#0 46581216#1 46334597#0 46334597#1 5671317 226040996#0 226040998#0 226040998#1 226040995#0 381474197#1" color="yellow"/>
    </vehicle>
    <vehicle id="6" type="myType" depart="0.02">
        <route edges="483704511#1 491162341#1 483704512#0 630828586#2 489019752#0 489019752#1 489019752#2 489019752#3 489019752#4 68668519#0 68668519#1 460606347#0 460606347#1 460606347#2 439933932#1 496982024#0 496983397#1 496983396#0 587038081#1 384649120#1 384649120#2 542257009#1 542257009#2 542257009#4 542257009#5" color="yellow"/>
    </vehicle>
    <person id="7" type="pType_0" depart="0.03">
        <walk edges="489019752#0 5670296#3 5670296#2 5670296#1 5670296#0 464515614#3 464515614#2 464515614#1"/>
    </person>
    <person id="8" type="pType_0" depart="0.03">
        <walk edges="226041001#5 195743182#2 483236728#1 483236728#3 483236728#4 483236728#5 458166897#1 458166897#0 380147339 381477008#0 46469729 157014137#0 157014137#1 157014137#2 421852618#0 421852618#1 46469732#0"/>
    </person>
    <person id="9" type="pType_0" depart="0.03">
        <walk edges="5671401#4 458166896#9 5672487#5 5672487#3 5672487#1 5672487#0 222299248#1 420872191 420872193#0 420872193#1 420872186 -335935798#1"/>
    </person>
    <vehicle id="7" type="myType" depart="0.03">
        <route edges="384178814 420904658 5671315 195743343#0 195743343#1 588168464 464515614#0 464515614#1 464515614#2 464515614#3 587061854 68668552#1 483704511#1 5672965#2 5672965#3 34080508#1 5670876#0" color="yellow"/>
    </vehicle>
    <vehicle id="8" type="myType" depart="0.03">
        <route edges="226040997#2 226040997#3 226040997#4 226040997#5 226040997#6 222299276#2 222299276#3 222299276#4 222299276#5 5672190#2 5672190#3 5672190#4 540356239#1 540356239#2 540356239#4 458166896#1 458166896#2 46334598#4 447001270" color="yellow"/>
    </vehicle>
    <vehicle id="9" type="myType" depart="0.03">
        <route edges="-420872204 118400729#1 118400729#5 118400729#6 118400729#9 118400729#12 420872194#0 381474197#1 420872190 420872184 222299248#0 222299248#1 420872191 420872193#0 420872193#1 420872186 420872181 335935799#0 335935799#1 194926839#1 194926839#2 420872201#1" color="yellow"/>
    </vehicle>
    <person id="10" type="pType_0" depart="0.04">
        <walk edges="5671401#12 420872184 420872190 381474197#1 420872194#0 118400729#12 118400729#9 118400729#6 118400729#5 118400729#1 420872204 556075521 426651389#0 527867881#0"/>
    </person>
    <person id="11" type="pType_0" depart="0.04">
        <walk edges="420499931#0 458177128#2 458177128#0 46469720#1 46469720#0 380147339 381477008#0 46469729 157014137#0 157014137#1 157014137#2 421852618#0 421852618#1 420872188#1 118400729#1 118400729#5 118400729#6 118400729#9 118400729#12 420872194#0 381474197#1 420872190 420872184 222299248#0"/>
    </person>
    <person id="12" type="pType_0" depart="0.04">
        <walk edges="663499009#1 543717203#3 543717203#2 491162341#1 167923358#0 46581216#6 46581216#5 46581216#4 46581216#3 46581216#2 46581216#1 46581216#0 693345069#1 415849235#1 415849235#2"/>
    </person>
    <vehicle id="10" type="myType" depart="0.04">
        <route edges="118400729#6 118400729#9 118400729#12 420872194#0 381474197#1 222299258#0 226040993#0 226040993#2 226040993#3 226040993#5 464683339#0 464683339#1 464683339#2 464683319 464683336 525768550 464683329#0 464683329#1" color="yellow"/>
    </vehicle>
    <vehicle id="11" type="myType" depart="0.04">
        <route edges="542257009#4 542257009#5 438385431#5 420496529 458166892#0 458166892#1 5670600 496983397#1" color="yellow"/>
    </vehicle>
    <vehicle id="12" type="myType" depart="0.04">
        <route edges="-46139021 46139021 381477004#0 46201642#0 381477008#0 380147339 46469720#0 46469720#1 458177128#0 458177128#2 420499931#0 420496529 458166892#0 458166892#1 5670600 496983397#1 496983396#0" color="yellow"/>
    </vehicle>
    <person id="13" type="pType_0" depart="0.05">
        <walk edges="157014136#1 430380404#1 394355248#2 335935799#0 420872181 420872186 420872193#1 420872193#0 420872191 222299248#1 222299248#0 420872184 420872190 381474197#1 420872194#0 118400729#12 118400729#9 118400729#6 118400729#5 118400729#1 420872188#1 421852618#1 421852618#0 157014137#2 157014137#1 157014137#0"/>
    </person>
    <person id="14" type="pType_0" depart="0.05">
        <walk edges="5672273#1 428567988#1 483704511#1 5672965#2 5672965#3 -465101198#1 465101198#0"/>
    </person>
    <person id="15" type="pType_0" depart="0.05">
        <walk edges="5671401#3 5671401#1 5671401#0 5670719#14 5670719#13 46581216#4 46581216#3 46581216#2 46581216#1 46581216#0 693345069#1 460606348#1 460606347#0 460606347#1 460606347#2 439933932#1 496982024#0 496983397#1 496983396#0 587038081#1 384649120#1 384649120#2 542257009#1 542257009#2"/>
    </person>
    <vehicle id="13" type="myType" depart="0.05">
        <route edges="420519635#0 420519635#1 464683318 196117051#0 196117051#1 196117051#2 420514149#0 226040998#0 226040998#1 226040995#0 226040997#2 226040997#3 226040997#4 226040997#5 226040997#6 222299276#2" color="yellow"/>
    </vehicle>
    <vehicle id="14" type="myType" depart="0.05">
        <route edges="118400729#5 118400729#6 118400729#9 5672992#0 46334598#0 46334598#2 46334598#3 46334598#4 447001271#1 447001271#2 464515614#0 464515614#1 464515614#2 464515614#3 587061854 68668552#1 5672273#0 5672273#1 483704512#0 630828586#2 630828585#0" color="yellow"/>
    </vehicle>
    <vehicle id="15" type="myType" depart="0.05">
        <route edges="447001272#0 226040996#0 420514149#1 464683341#0" color="yellow"/>
    </vehicle>
    <person id="16" type="pType_0" depart="0.06">
        <walk edges="46334599#1 46334599#0 456308943#1 5670876#1 5670876#0 68668541#0"/>
    </person>
    <person id="17" type="pType_0" depart="0.06">
        <walk edges="420872201#2 420872201#1 -420872201#0 194926839#1 430380404#1 394355248#2 335935799#0 420872181 195745915#0 195745914#0 525768549#1 464683336 464683318 464683319"/>
    </person>
    <vehicle id="16" type="myType" depart="0.06">
        <route edges="46334595#0 46334595#1 381480256#1 144001605#3 420872177 368938760#0 368938760#1 664660185 46201642#0 381477008#0 380147339 46469720#0 46469720#1 458177129 518451322 46469731#0 46469731#1 46469731#2 46469731#3 496983399#0 496983399#1 496983398#0 587038081#1 46522006#0 46522006#1" color="yellow"/>
    </vehicle>
    <vehicle id="17" type="myType" depart="0.06">
        <route edges="194923807#3 194923807#6 194923807#9 438384743 222299276#0 222299276#2 222299276#3 222299276#4 222299276#5 222299276#8 222299276#9 144001606#1 144001605#1 144001605#3 420872177 368938762#0 368938761#0 368938761#2 5671349#0 5671349#2 5671349#3" color="yellow"/>
    </vehicle>
    <vehicle id="18" type="myType" depart="0.06">
        <route edges="68674961#0 68674961#1 458166893#2 458166895#0 458166895#1 46469722 421852619#1 421852619#2 421852618#0 421852618#1 420872188#1 420872204 46139023#1" color="yellow"/>
    </vehicle>
    <person id="18" type="pType_0" depart="0.07">
        <walk edges="5671774#14 5671774#17 -420519634#1 438390724 -420598373 -428569356 587038012 -526571477#2 526571477#1 543717203#3 543717203#2 491162341#1 167923358#0 46581216#6 46581216#5 46581216#4 46581216#3 46581216#2"/>
    </person>
    <person id="19" type="pType_0" depart="0.07">
        <walk edges="5672965#2 483704511#1 68668552#1 5669875#0 5669875#1 5669875#2 196117042#0 196117042#1 196117042#2 447001272#0 447001272#1 447001272#2 420499932#0 46520833#1 389590214#1 5673380#2 573476360 68674961#1 68674961#2 458177128#0 46469720#1"/>
    </person>
    <person id="20" type="pType_0" depart="0.07">
        <walk edges="527867887#2 -556075521 420872204 554083352#0 587038129#0 542096278#0 -542096278#2 571651963 -384178814 -420904658 -420904659 -496982022#0"/>
    </person>
    <vehicle id="19" type="myType" depart="0.07">
        <route edges="194923807#6 194923807#9 438384743 222299276#0 222299276#2 222299276#3 222299276#4 222299276#5 222299276#8 222299276#9 144001606#1 144001605#1 144001605#3 420872177 368938760#0 368938760#1 664660185 46201642#0 381477008#0 380147339 46469720#0 46469720#1 458177128#0 458177128#2 195743182#0 195743182#2" color="yellow"/>
    </vehicle>
    <vehicle id="20" type="myType" depart="0.07">
        <route edges="447001272#2 420499932#0 46520833#2 46520833#3 195743343#1 588168464 464515614#0 464515614#1 464515614#2 464515614#3 587061854 68668552#1 483704511#1 5672965#2 5672965#3" color="yellow"/>
    </vehicle>
    <person id="21" type="pType_0" depart="0.08">
        <walk edges="335935797#0 -335935797#1 194923807#1 194923807#0 -420872201#2 420872201#1 -420872201#0 194926839#1 430380404#1 -489019753#2 -420519634#1 438390724 -420598373 -428569356 587038012 -526571477#2 526571477#1 385106581#1"/>
    </person>
    <person id="22" type="pType_0" depart="0.08">
        <walk edges="118400729#12 420872194#0 381474197#1 420872190 420872184 222299248#0 222299248#1 420872191 420872193#0 420872193#1 420872186 420872181 335935799#0"/>
    </person>
    <person id="23" type="pType_0" depart="0.08">
        <walk edges="157014137#2 421852618#0 421852618#1 420872188#1 118400729#1 118400729#5 118400729#6 118400729#9 118400729#12 420872194#0 381474197#1 420872190 420872184 222299248#0 222299248#1 420872191 420872193#0 420872193#1 420872186 420872181 335935799#0 394355248#2 -489019753#2 -420519634#1 438390724 -420598373 -428569356 587038012 -526571477#2 526571477#1 5671620#1 382535022#0"/>
    </person>
    <vehicle id="21" type="myType" depart="0.08">
        <route edges="464683336 525768550 -438390724 -420519634#1 -489019753#2 -489019753#0 157014136#1 157014136#2 226040991#0" color="yellow"/>
    </vehicle>
    <vehicle id="22" type="myType" depart="0.08">
        <route edges="541330444 196117090#6 196117090#7 630828586#0 630828586#1 630828586#2 489019752#0 489019752#1 489019752#2 489019752#3 489019752#4 68668519#0 68668519#1 460606347#0 460606347#1 460606347#2 439933932#1 496982024#0 496983397#1 496983396#0 587038081#1 46522006#0 46522006#1 5673231 458166893#0 458166893#2 458166895#0 458166895#1 587038101 458166897#0 458166897#1 483236728#6 483236728#7 483236728#8 483236728#9 483236728#10 420901683#0 46469729 157014137#0 157014137#1" color="yellow"/>
    </vehicle>
    <vehicle id="23" type="myType" depart="0.08">
        <route edges="68668519#1 460606348#1 693345069#1 46581216#0 46581216#1 46581216#2 46581216#3 46581216#4 5670719#13 5670719#14 5671401#0 5671401#1 5671401#3 5671401#4 5671401#6 5671401#9 5671401#11 5671401#12 222299248#0" color="yellow"/>
    </vehicle>
    <person id="24" type="pType_0" depart="0.09">
        <walk edges="483236728#4 483236728#5 458166897#1 458166897#0 380147339 381477008#0 46469729 157014137#0 157014137#1 157014137#2 421852618#0 421852618#1 420872188#1 118400729#1 118400729#5 118400729#6 118400729#9 118400729#12 420872194#0 381474197#1 420872190 420872184 222299248#0 222299248#1 420872191 420872193#0 420872193#1 420872186"/>
    </person>
    <person id="25" type="pType_0" depart="0.09">
        <walk edges="420872191 222299248#1 222299248#0 420872184 420872190 381474197#1 420872194#0 118400729#12 118400729#9 118400729#6 118400729#5 118400729#1 420872188#1 421852618#1 421852618#0 157014137#2 157014137#1 157014137#0 46469729 420901683#0 420901668 420901679 226041000#0 226041000#1 226041000#2 226041000#3"/>
    </person>
    <person id="26" type="pType_0" depart="0.09">
        <walk edges="381477008#0 380147339 587038101 554083353#2 554083353#0 542096278#0 -542096278#2 571651963 5673380#2 389590214#1 46520833#1 420499932#0 447001272#2 447001271#2 46490538#0 46490538#1 46490538#2 46490538#3 46490538#5 46490538#6 489019752#4 489019752#3 489019752#2 489019752#1 489019752#0 630828585#0"/>
    </person>
    <vehicle id="24" type="myType" depart="0.09">
        <route edges="68674961#2 68674968#2 458166893#2 458166895#0 458166895#1 46469722 421852619#1 421852619#2 421852618#0 421852618#1 420872188#1 118400729#1 -5672190#4" color="yellow"/>
    </vehicle>
    <vehicle id="25" type="myType" depart="0.09">
        <route edges="5671349#0 5671349#2 5671349#3 226041000#0 226041000#1 226041000#2 226041000#3 226041000#4 226040999 458177133#1 458177133#2 458177128#0 458177128#2 420499931#0 420496529 458166892#0 458166892#1 195743343#0 195743343#1 588168464 464515614#0 464515614#1 464515614#2 5671401#0" color="yellow"/>
    </vehicle>
    <vehicle id="26" type="myType" depart="0.09">
        <route edges="597821267#2 597821267#3 420872193#0 511973084#0 388240124#0 388240124#3 388240124#6 388240124#9 388240124#12 388240124#15 388240124#18 388240124#21 587061869#0 587061869#2 554083353#0 554083353#2 587038101 458166897#0 458166897#1 483236728#6 483236728#7 483236728#8 483236728#9 483236728#10 453367786#0" color="yellow"/>
    </vehicle>
    <person id="27" type="pType_0" depart="0.10">
        <walk edges="483704512#0 5672273#1 428567988#1 68668552#1 587061854 464515614#3 464515614#2 464515614#1 464515614#0 588168464 195743343#1 46520833#3"/>
    </person>
    <person id="28" type="pType_0" depart="0.10">
        <walk edges="222299276#8 5672190#2 5672190#3 -5672190#4 118400729#1 420872188#1 421852618#1 421852618#0 157014137#2 157014137#1 157014137#0 46469729 381477008#0 380147339 458166897#0 458166897#1 483236728#5 483236728#4 483236728#3 483236728#1 483236728#0 542257009#5 542257009#4 542257009#2"/>
    </person>
    <vehicle id="27" type="myType" depart="0.10">
        <route edges="68668552#1 483704511#1 543717203#2 543717203#3 526571477#1 526571477#2 587038012 428569356 420598373 -438390724 -420519634#1 -489019753#2 -489019753#0 194926839#1 194926839#2" color="yellow"/>
    </vehicle>
    <vehicle id="28" type="myType" depart="0.10">
        <route edges="464683339#0 196117051#2 420514148#1 447001272#0 447001272#1 447001272#2 420499932#0 46520833#2 46520833#3 5671442#0 5671442#1 690414969" color="yellow"/>
    </vehicle>
    <vehicle id="29" type="myType" depart="0.10">
        <route edges="46522006#0 46522006#1 458166892#0 458166892#1 -420904659" color="yellow"/>
    </vehicle>
    <person id="29" type="pType_0" depart="0.11">
        <walk edges="222299276#2 222299276#0 438384743 194923807#9 194923807#6 194923807#3 194923807#2 194923807#1 194923807#0 -420872201#2 420872201#2"/>
    </person>
    <person id="30" type="pType_0" depart="0.11">
        <walk edges="68674968#1 483236728#3 483236728#4 483236728#5 483236728#6"/>
    </person>
    <person id="31" type="pType_0" depart="0.11">
        <walk edges="464683322 464683318 464683339#2 464683339#1 196117051#2 464683341#1 464683341#0 447001270 573476359#1 389590214#1 5673380#2 571651963 -542096278#2 542096278#0 554083353#0 518451327#1"/>
    </person>
    <vehicle id="30" type="myType" depart="0.11">
        <route edges="543717203#2 543717203#3 526571477#1 526571477#2 5671393#1 5670466 525768549#1 195745914#0 221157083#0 388240124#0 388240124#3 388240124#6 388240124#9 388240124#12" color="yellow"/>
    </vehicle>
    <vehicle id="31" type="myType" depart="0.11">
        <route edges="68674968#4 68674965 573476359#1 385668565#0 385668565#1 458166896#2 458166896#3 458166896#4 458166896#6 5671401#6 5671401#9 5671401#11" color="yellow"/>
    </vehicle>
    <person id="32" type="pType_0" depart="0.12">
        <walk edges="5672211#3 5672211#2 5672211#0 5670673#1"/>
    </person>
    <person id="33" type="pType_0" depart="0.12">
        <walk edges="335935797#1 -335935797#1 194923807#1 194923807#0 -420872201#2 420872201#1 -420872201#0 194926839#1 430380404#1 -489019753#2 -420519634#1 438390724 -420598373 -428569356"/>
    </person>
    <person id="34" type="pType_0" depart="0.12">
        <walk edges="388240124#3 597821267#0 597821267#2 597821267#3 420872191 222299248#1 222299248#0 420872184 420872190 381474197#1 420872194#0 118400729#12 118400729#9 118400729#6 118400729#5 118400729#1 420872188#1 5670317#7 46139023#4 46334595#1 381480256#1"/>
    </person>
    <vehicle id="32" type="myType" depart="0.12">
        <route edges="483236728#3 458177133#2 458177128#0 68674968#2 68674968#3 68674968#4 68674965 573476359#1 464683344 464683341#0 464683341#1 464683339#0 464683339#1 464683339#2 464683319 464683336 420519635#1" color="yellow"/>
    </vehicle>
    <vehicle id="33" type="myType" depart="0.12">
        <route edges="226041000#2 226041000#3 226041000#4 226040999 458177133#1 458177133#2 458177129 518451322 541351705 458166896#0 458166896#1 458166896#2 458166896#3 458166896#4 458166896#6 458166896#9 458166896#12 458166896#15 458166896#17" color="yellow"/>
    </vehicle>
    <vehicle id="34" type="myType" depart="0.12">
        <route edges="641914938 5671699#0 5671699#1 619277987#2 194923807#6 194923807#9 438384743 222299276#0 222299276#2 222299276#3 222299276#4 222299276#5 222299276#8 222299276#9 144001606#1 144001605#1 144001605#3 420872177 368938760#0 368938760#1 664660185 46201642#0 381477008#0 380147339 46469720#0 46469720#1" color="yellow"/>
    </vehicle>
    <person id="35" type="pType_0" depart="0.13">
        <walk edges="226041000#4 5673626#1 5673626#0 380147339 587038101 554083353#2 554083353#0 542096278#0 -542096278#2 571651963 5673380#2 389590214#1 46520833#1 420499932#0 447001272#2 447001272#1 447001272#0 196117042#2 196117042#1 196117042#0 5669875#2 5669875#1 5669875#0 68668552#1 483704511#1 396444294#14 396444294#13 630828586#1"/>
    </person>
    <person id="36" type="pType_0" depart="0.13">
        <walk edges="5673626#1 5673626#0 380147339 587038101 554083353#2 554083353#0 587061869#2 587061869#0 388240124#21 388240124#18 388240124#15 388240124#12 388240124#9 388240124#6 388240124#3"/>
    </person>
    <person id="37" type="pType_0" depart="0.13">
        <walk edges="489019752#3 489019752#4 68668519#0 68668519#1 460606347#0 460606347#1 460606347#2 439933932#1 496982024#0 496983397#1 496983396#0 587038081#1 384649120#1 420904660#2"/>
    </person>
    <vehicle id="35" type="myType" depart="0.13">
        <route edges="5669669#2 489019752#3 226041019 46581216#2 46581216#3 46581216#4 46581216#5 46581216#6 46334600#0 5669875#0 5669875#1 5669875#2 196117042#0 196117042#1" color="yellow"/>
    </vehicle>
    <vehicle id="36" type="myType" depart="0.13">
        <route edges="380099776 626226775#0 626226775#1 626226775#2 626226775#3 626226775#4 511973084#0 388240124#0 388240124#3 388240124#6 5671401#9 5671401#11 5671401#12 222299248#0" color="yellow"/>
    </vehicle>
    <vehicle id="37" type="myType" depart="0.13">
        <route edges="5669669#2 489019752#3 226041019 46581216#2 46581216#3 46581216#4 46581216#5 46581216#6 46334600#0 68668552#1 483704511#1 543717203#2 543717203#3 34080174#1 456308943#1 46334599#0 46334599#1 -5671774#16 5671774#14" color="yellow"/>
    </vehicle>
    <person id="38" type="pType_0" depart="0.14">
        <walk edges="602266745#6 5672190#2 5672190#3 -5672190#4 118400729#1 554083352#0 587038129#0 542096278#0 -542096278#2 541351705 518451322 458166893#2 458166893#0 5673231 458166892#0"/>
    </person>
    <person id="39" type="pType_0" depart="0.14">
        <walk edges="381477004#0 -381477004#1 664660185 368938760#1 368938760#0"/>
    </person>
    <person id="40" type="pType_0" depart="0.14">
        <walk edges="464683336 409716177 458166896#15 428569470#2 428569470#4 597821267#0 597821267#2 597821267#3 420872191 222299248#1 222299248#0 420872184 420872190 381474197#1"/>
    </person>
    <vehicle id="38" type="myType" depart="0.14">
        <route edges="587061869#0 587061869#2 554083353#0 554083353#2 587038101 458166897#0 458166897#1 458166897#2 226040999 226041001#0 226041001#2 226041001#3 226041001#4" color="yellow"/>
    </vehicle>
    <vehicle id="39" type="myType" depart="0.14">
        <route edges="489019753#0 489019753#1 489019754#0 221157083#0 388240124#0 388240124#3 388240124#6 388240124#9 388240124#12 388240124#15 388240124#18 385668565#5" color="yellow"/>
    </vehicle>
    <vehicle id="40" type="myType" depart="0.14">
        <route edges="195743165#0 385668565#0 385668565#1 385668565#2 385668565#3 388240124#21 587061869#0" color="yellow"/>
    </vehicle>
    <person id="41" type="pType_0" depart="0.15">
        <walk edges="46469731#1 573476360 5673380#2 389590214#1 46520833#1 420499932#0 5671693#0 588168464"/>
    </person>
    <person id="42" type="pType_0" depart="0.15">
        <walk edges="421852618#1 421852618#0 157014137#2 157014137#1 157014137#0 46469729 381477008#0 380147339 458166897#0 458166897#1 483236728#5 483236728#4 483236728#3 68674968#0 226041001#2 226041001#3 226041001#4"/>
    </person>
    <vehicle id="41" type="myType" depart="0.15">
        <route edges="46522006#1 5673231 458166893#0 458166893#2 518451322 541351705 458166896#0 458166896#1 458166896#2 458166896#3 458166896#4 458166896#6" color="yellow"/>
    </vehicle>
    <vehicle id="42" type="myType" depart="0.15">
        <route edges="5672487#7 464683339#2 464683319 464683336 525768550 464683329#0 464683329#1" color="yellow"/>
    </vehicle>
    <vehicle id="43" type="myType" depart="0.15">
        <route edges="-194926839#1 489019753#0 489019753#1 489019754#0 221157083#0 388240124#0 388240124#3 388240124#6 388240124#9 388240124#12 388240124#15 388240124#18 388240124#21 587061869#0 587061869#2 554083353#0 554083353#2 587038101 46469720#0 46469720#1 458177129 458166895#0" color="yellow"/>
    </vehicle>
    <person id="43" type="pType_0" depart="0.16">
        <walk edges="690414969 460606347#2 460606347#1 460606347#0 460606348#1"/>
    </person>
    <person id="44" type="pType_0" depart="0.16">
        <walk edges="144001606#1 -556075521 420872204 118400729#1 118400729#5 118400729#6 118400729#9 118400729#12 420872194#0 381474197#1 420872190 420872184 222299248#0 222299248#1 420872191 420872193#0 420872193#1 420872186 420872181 335935799#0 394355248#2 -489019753#2 -420519634#1 438390724 -420598373 -428569356 587038012 -526571477#2 -526571477#1"/>
    </person>
    <person id="45" type="pType_0" depart="0.16">
        <walk edges="194923807#3 -619277987#2 619277987#1 380096992#1 420872191 222299248#1 222299248#0 420872184 420872190 381474197#1 420872194#0 118400729#12 118400729#9 118400729#6 118400729#5 118400729#1 420872188#1 421852618#1 421852618#0 157014137#2 157014137#1 157014137#0 46469729 381477008#0 380147339 458166897#0 458166897#1 483236728#5 483236728#4 483236728#3 483236728#1 483236728#0"/>
    </person>
    <vehicle id="44" type="myType" depart="0.16">
        <route edges="46469729 157014137#0 157014137#1 157014137#2 421852618#0 421852618#1 46469732#0 518451327#0 554083353#2 587038101 46469720#0 46469720#1 458177129 518451322" color="yellow"/>
    </vehicle>
    <vehicle id="45" type="myType" depart="0.16">
        <route edges="222299248#1 420872191 420872193#0 511973084#0 388240124#0 388240124#3 5672487#3 5672487#5 458166896#12 458166896#15 409716177" color="yellow"/>
    </vehicle>
    <person id="46" type="pType_0" depart="0.17">
        <walk edges="5671349#2 5671349#3 226041000#0 226041000#1 226041000#2 226041000#3 226041000#4 226040999 226041001#0 226041001#2 226041001#3 226041001#4 226041001#5 438385431#4"/>
    </person>
    <person id="47" type="pType_0" depart="0.17">
        <walk edges="-5672190#2 5672190#3 -5672190#4 118400729#1 420872204"/>
    </person>
    <person id="48" type="pType_0" depart="0.17">
        <walk edges="68674968#4 68674965 573476359#1 385668565#0 385668565#1 458166896#2 46334598#3 46334598#2"/>
    </person>
    <vehicle id="46" type="myType" depart="0.17">
        <route edges="483704512#0 630828586#2 489019752#0 489019752#1 5670719#12 5670719#13 5670719#14 5671401#0" color="yellow"/>
    </vehicle>
    <vehicle id="47" type="myType" depart="0.17">
        <route edges="196117042#1 196117042#2 447001272#0 447001272#1 447001272#2 420499932#0 46520833#2 46520833#3 195743343#1 5671693#0" color="yellow"/>
    </vehicle>
    <vehicle id="48" type="myType" depart="0.17">
        <route edges="388240124#6 388240124#9 226040993#0 226040993#2 226040993#3 458166896#6 458166896#9 458166896#12 428569470#2 428569470#4 597821267#0" color="yellow"/>
    </vehicle>
    <person id="49" type="pType_0" depart="0.18">
        <walk edges="68668519#1 460606348#1 693345069#1 46581216#0 46581216#1 46581216#2 46581216#3 46581216#4 46581216#5 5670296#0 5672487#11 5672487#10 5672487#7"/>
    </person>
    <person id="50" type="pType_0" depart="0.18">
        <walk edges="-381477008#1 380147339 587038101 554083353#2 554083353#0 542096278#0"/>
    </person>
    <person id="51" type="pType_0" depart="0.18">
        <walk edges="518451322 541351705 -542096278#2 542096278#0 587061869#2 587061869#0 388240124#21 388240124#18 388240124#15 388240124#12 388240124#9 388240124#6 388240124#3 388240124#0 221157083#0 489019754#0 5671774#17 46334599#3"/>
    </person>
    <vehicle id="49" type="myType" depart="0.18">