<?xml version="1.0" encoding="UTF-8"?>
<!-- generated on 2022-02-01 21:48:58.134579 by $Id$ v1_7_0+0685-294ce9332e
  options: -n ../../manhattan_2km.net.xml <doubleminus>trip-attributes=type="pType_0" <doubleminus>additional-file type-ped.add.xml -r manhattanPed.rou.xml -b 0 -e 1 -p 0.003624 <doubleminus>persontrips
-->
<routes xmlns:xsi="http://www.w3.org/2001/XMLSchema-instance" xsi:noNamespaceSchemaLocation="http://sumo.dlr.de/xsd/routes_file.xsd">
    <person id="0" depart="0.00" type="pType_0">
        <personTrip from="483236728#6" to="-420872204"/>
    </person>
    <person id="1" depart="0.00" type="pType_0">
        <personTrip from="382532607#1" to="226041019"/>
    </person>
    <person id="2" depart="0.01" type="pType_0">
        <personTrip from="543717203#3" to="496983399#1"/>
    </person>
    <person id="3" depart="0.01" type="pType_0">
        <personTrip from="587061854" to="144001605#1"/>
    </person>
    <person id="4" depart="0.01" type="pType_0">
        <personTrip from="438385431#4" to="-420904659"/>
    </person>
    <person id="5" depart="0.02" type="pType_0">
        <personTrip from="226041001#4" to="460606347#0"/>
    </person>
    <person id="6" depart="0.02" type="pType_0">
        <personTrip from="-420872209" to="226040998#0"/>
    </person>
    <person id="7" depart="0.03" type="pType_0">
        <personTrip from="489019752#0" to="464515614#1"/>
    </person>
    <person id="8" depart="0.03" type="pType_0">
        <personTrip from="226041001#5" to="46469732#0"/>
    </person>
    <person id="9" depart="0.03" type="pType_0">
        <personTrip from="5671401#4" to="-335935798#1"/>
    </person>
    <person id="10" depart="0.04" type="pType_0">
        <personTrip from="5671401#12" to="527867881#0"/>
    </person>
    <person id="11" depart="0.04" type="pType_0">
        <personTrip from="420499931#0" to="222299248#0"/>
    </person>
    <person id="12" depart="0.04" type="pType_0">
        <personTrip from="663499009#1" to="415849235#2"/>
    </person>
    <person id="13" depart="0.05" type="pType_0">
        <personTrip from="157014136#1" to="157014137#0"/>
    </person>
    <person id="14" depart="0.05" type="pType_0">
        <personTrip from="5672273#1" to="465101198#0"/>
    </person>
    <person id="15" depart="0.05" type="pType_0">
        <personTrip from="5671401#3" to="542257009#2"/>
    </person>
    <person id="16" depart="0.06" type="pType_0">
        <personTrip from="46334599#1" to="68668541#0"/>
    </person>
    <person id="17" depart="0.06" type="pType_0">
        <personTrip from="420872201#2" to="464683319"/>
    </person>
    <person id="18" depart="0.07" type="pType_0">
        <personTrip from="5671774#14" to="46581216#2"/>
    </person>
    <person id="19" depart="0.07" type="pType_0">
        <personTrip from="5672965#2" to="46469720#1"/>
    </person>
    <person id="20" depart="0.07" type="pType_0">
        <personTrip from="527867887#2" to="-496982022#0"/>
    </person>
    <person id="21" depart="0.08" type="pType_0">
        <personTrip from="335935797#0" to="385106581#1"/>
    </person>
    <person id="22" depart="0.08" type="pType_0">
        <personTrip from="118400729#12" to="335935799#0"/>
    </person>
    <person id="23" depart="0.08" type="pType_0">
        <personTrip from="157014137#2" to="382535022#0"/>
    </person>
    <person id="24" depart="0.09" type="pType_0">
        <personTrip from="483236728#4" to="420872186"/>
    </person>
    <person id="25" depart="0.09" type="pType_0">
        <personTrip from="420872191" to="226041000#3"/>
    </person>
    <person id="26" depart="0.09" type="pType_0">
        <personTrip from="381477008#0" to="630828585#0"/>
    </person>
    <person id="27" depart="0.10" type="pType_0">
        <personTrip from="483704512#0" to="46520833#3"/>
    </person>
    <person id="28" depart="0.10" type="pType_0">
        <personTrip from="222299276#8" to="542257009#2"/>
    </person>
    <person id="29" depart="0.11" type="pType_0">
        <personTrip from="222299276#2" to="420872201#2"/>
    </person>
    <person id="30" depart="0.11" type="pType_0">
        <personTrip from="68674968#1" to="483236728#6"/>
    </person>
    <person id="31" depart="0.11" type="pType_0">
        <personTrip from="464683322" to="518451327#1"/>
    </person>
    <person id="32" depart="0.12" type="pType_0">
        <personTrip from="5672211#3" to="5670673#1"/>
    </person>
    <person id="33" depart="0.12" type="pType_0">
        <personTrip from="335935797#1" to="-428569356"/>
    </person>
    <person id="34" depart="0.12" type="pType_0">
        <personTrip from="388240124#3" to="381480256#1"/>
    </person>
    <person id="35" depart="0.13" type="pType_0">
        <personTrip from="226041000#4" to="630828586#1"/>
    </person>
    <person id="36" depart="0.13" type="pType_0">
        <personTrip from="5673626#1" to="388240124#3"/>
    </person>
    <person id="37" depart="0.13" type="pType_0">
        <personTrip from="489019752#3" to="420904660#2"/>
    </person>
    <person id="38" depart="0.14" type="pType_0">
        <personTrip from="602266745#6" to="458166892#0"/>
    </person>
    <person id="39" depart="0.14" type="pType_0">
        <personTrip from="381477004#0" to="368938760#0"/>
    </person>
    <person id="40" depart="0.14" type="pType_0">
        <personTrip from="464683336" to="381474197#1"/>
    </person>
    <person id="41" depart="0.15" type="pType_0">
        <personTrip from="46469731#1" to="588168464"/>
    </person>
    <person id="42" depart="0.15" type="pType_0">
        <personTrip from="421852618#1" to="226041001#4"/>
    </person>
    <person id="43" depart="0.16" type="pType_0">
        <personTrip from="690414969" to="460606348#1"/>
    </person>
    <person id="44" depart="0.16" type="pType_0">
        <personTrip from="144001606#1" to="-526571477#1"/>
    </person>
    <person id="45" depart="0.16" type="pType_0">
        <personTrip from="194923807#3" to="483236728#0"/>
    </person>
    <person id="46" depart="0.17" type="pType_0">
        <personTrip from="5671349#2" to="438385431#4"/>
    </person>
    <person id="47" depart="0.17" type="pType_0">
        <personTrip from="-5672190#2" to="420872204"/>
    </person>
    <person id="48" depart="0.17" type="pType_0">
        <personTrip from="68674968#4" to="46334598#2"/>
    </person>
    <person id="49" depart="0.18" type="pType_0">
        <personTrip from="68668519#1" to="5672487#7"/>
    </person>
    <person id="50" depart="0.18" type="pType_0">
        <personTrip from="-381477008#1" to="542096278#0"/>
    </person>
    <person id="51" depart="0.18" type="pType_0">
        <personTrip from="518451322" to="46334599#3"/>
    </person>
    <person id="52" depart="0.19" type="pType_0">
        <personTrip from="381477008#0" to="483236728#7"/>
    </person>
    <person id="53" depart="0.19" type="pType_0">
        <personTrip from="194923807#6" to="447001271#2"/>
    </person>
    <person id="54" depart="0.20" type="pType_0">
        <personTrip from="456308944" to="663499007#3"/>
    </person>
    <person id="55" depart="0.20" type="pType_0">
        <personTrip from="5673626#1" to="381474197#1"/>
    </person>
    <person id="56" depart="0.20" type="pType_0">
        <personTrip from="458177133#1" to="226040993#0"/>
    </person>
    <person id="57" depart="0.21" type="pType_0">
        <personTrip from="602266745#5" to="5673380#0"/>
    </person>
    <person id="58" depart="0.21" type="pType_0">
        <personTrip from="385668565#3" to="483236728#6"/>
    </person>
    <person id="59" depart="0.21" type="pType_0">
        <personTrip from="46520833#3" to="196117090#7"/>
    </person>
    <person id="60" depart="0.22" type="pType_0">
        <personTrip from="5670296#3" to="46334599#6"/>
    </person>
    <person id="61" depart="0.22" type="pType_0">
        <personTrip from="5670719#13" to="46334598#3"/>
    </person>
    <person id="62" depart="0.22" type="pType_0">
        <personTrip from="-194926839#1" to="396444294#13"/>
    </person>
    <person id="63" depart="0.23" type="pType_0">
        <personTrip from="-420872201#0" to="626226775#2"/>
    </person>
    <person id="64" depart="0.23" type="pType_0">
        <personTrip from="573476359#1" to="5671774#17"/>
    </person>
    <person id="65" depart="0.24" type="pType_0">
        <personTrip from="388240124#12" to="-5671620#1"/>
    </person>
    <person id="66" depart="0.24" type="pType_0">
        <personTrip from="571651963" to="641914938"/>
    </person>
    <person id="67" depart="0.24" type="pType_0">
        <personTrip from="118400729#9" to="458166896#6"/>
    </person>
    <person id="68" depart="0.25" type="pType_0">
        <personTrip from="-571651963" to="5670296#2"/>
    </person>
    <person id="69" depart="0.25" type="pType_0">
        <personTrip from="5670317#7" to="195743182#0"/>
    </person>
    <person id="70" depart="0.25" type="pType_0">
        <personTrip from="458166896#12" to="464515614#3"/>
    </person>
    <person id="71" depart="0.26" type="pType_0">
        <personTrip from="381477004#0" to="5673380#2"/>
    </person>
    <person id="72" depart="0.26" type="pType_0">
        <personTrip from="438385431#5" to="226041000#4"/>
    </person>
    <person id="73" depart="0.26" type="pType_0">
        <personTrip from="46334599#6" to="542257009#2"/>
    </person>
    <person id="74" depart="0.27" type="pType_0">
        <personTrip from="226040999" to="388240124#18"/>
    </person>
    <person id="75" depart="0.27" type="pType_0">
        <personTrip from="68674968#4" to="489019752#0"/>
    </person>
    <person id="76" depart="0.28" type="pType_0">
        <personTrip from="447001272#1" to="46201642#0"/>
    </person>
    <person id="77" depart="0.28" type="pType_0">
        <personTrip from="194923808#8" to="22914179#6"/>
    </person>
    <person id="78" depart="0.28" type="pType_0">
        <personTrip from="420496529" to="46469731#3"/>
    </person>
    <person id="79" depart="0.29" type="pType_0">
        <personTrip from="335935797#1" to="226041001#5"/>
    </person>
    <person id="80" depart="0.29" type="pType_0">
        <personTrip from="-587038012" to="483236728#10"/>
    </person>
    <person id="81" depart="0.29" type="pType_0">
        <personTrip from="335935797#1" to="602266745#1"/>
    </person>
    <person id="82" depart="0.30" type="pType_0">
        <personTrip from="5672487#5" to="-587038012"/>
    </person>
    <person id="83" depart="0.30" type="pType_0">
        <personTrip from="34079830#0" to="496983396#0"/>
    </person>
    <person id="84" depart="0.30" type="pType_0">
        <personTrip from="226041001#2" to="195743343#0"/>
    </person>
    <person id="85" depart="0.31" type="pType_0">
        <personTrip from="630828585#0" to="464683341#1"/>
    </person>
    <person id="86" depart="0.31" type="pType_0">
        <personTrip from="458166896#1" to="5670876#1"/>
    </person>
    <person id="87" depart="0.32" type="pType_0">
        <personTrip from="5671401#3" to="226040997#3"/>
    </person>
    <person id="88" depart="0.32" type="pType_0">
        <personTrip from="157014137#0" to="447001270"/>
    </person>
    <person id="89" depart="0.32" type="pType_0">
        <personTrip from="438385431#5" to="458166895#0"/>
    </person>
    <person id="90" depart="0.33" type="pType_0">
        <personTrip from="542257009#2" to="496983398#0"/>
    </person>
    <person id="91" depart="0.33" type="pType_0">
        <personTrip from="68674961#4" to="157014137#1"/>
    </person>
    <person id="92" depart="0.33" type="pType_0">
        <personTrip from="421852619#2" to="420496529"/>
    </person>
    <person id="93" depart="0.34" type="pType_0">
        <personTrip from="5672965#2" to="368938760#1"/>
    </person>
    <person id="94" depart="0.34" type="pType_0">
        <personTrip from="226040997#3" to="453367786#4"/>
    </person>
    <person id="95" depart="0.34" type="pType_0">
        <personTrip from="438385431#4" to="382535022#0"/>
    </person>
    <person id="96" depart="0.35" type="pType_0">
        <personTrip from="368938761#0" to="619277989#2"/>
    </person>
    <person id="97" depart="0.35" type="pType_0">
        <personTrip from="453367786#1" to="5672487#7"/>
    </person>
    <person id="98" depart="0.36" type="pType_0">
        <personTrip from="464683318" to="-542096278#1"/>
    </person>
    <person id="99" depart="0.36" type="pType_0">
        <personTrip from="693345069#1" to="5672190#4"/>
    </person>
    <person id="100" depart="0.36" type="pType_0">
        <personTrip from="68668519#0" to="626226775#1"/>
    </person>
    <person id="101" depart="0.37" type="pType_0">
        <personTrip from="5672273#1" to="222299276#4"/>
    </person>
    <person id="102" depart="0.37" type="pType_0">
        <personTrip from="458166896#6" to="226041001#0"/>
    </person>
    <person id="103" depart="0.37" type="pType_0">
        <personTrip from="421852619#1" to="-5671620#1"/>
    </person>
    <person id="104" depart="0.38" type="pType_0">
        <personTrip from="420872201#2" to="68674965"/>
    </person>
    <person id="105" depart="0.38" type="pType_0">
        <personTrip from="381477004#0" to="5670876#0"/>
    </person>
    <person id="106" depart="0.38" type="pType_0">
        <personTrip from="456308945" to="438385431#5"/>
    </person>
    <person id="107" depart="0.39" type="pType_0">
        <personTrip from="663499009#1" to="68674968#4"/>
    </person>
    <person id="108" depart="0.39" type="pType_0">
        <personTrip from="464683322" to="541351705"/>
    </person>
    <person id="109" depart="0.40" type="pType_0">
        <personTrip from="221157083#0" to="385668565#2"/>
    </person>
    <person id="110" depart="0.40" type="pType_0">
        <personTrip from="68668519#0" to="46469722"/>
    </person>
    <person id="111" depart="0.40" type="pType_0">
        <personTrip from="46334600#0" to="5669669#1"/>
    </person>
    <person id="112" depart="0.41" type="pType_0">
        <personTrip from="-556075521" to="46469731#1"/>
    </person>
    <person id="113" depart="0.41" type="pType_0">
        <personTrip from="458177133#2" to="5672487#10"/>
    </person>
    <person id="114" depart="0.41" type="pType_0">
        <personTrip from="222299248#1" to="664660185"/>
    </person>
    <person id="115" depart="0.42" type="pType_0">
        <personTrip from="118400729#12" to="226040995#0"/>
    </person>
    <person id="116" depart="0.42" type="pType_0">
        <personTrip from="46490538#2" to="496983399#0"/>
    </person>
    <person id="117" depart="0.42" type="pType_0">
        <personTrip from="335935799#1" to="194923808#7"/>
    </person>
    <person id="118" depart="0.43" type="pType_0">
        <personTrip from="587038129#0" to="368938760#0"/>
    </person>
    <person id="119" depart="0.43" type="pType_0">
        <personTrip from="46490538#2" to="46581216#2"/>
    </person>
    <person id="120" depart="0.43" type="pType_0">
        <personTrip from="438384743" to="46469731#1"/>
    </person>
    <person id="121" depart="0.44" type="pType_0">
        <personTrip from="46334597#0" to="630828554"/>
    </person>
    <person id="122" depart="0.44" type="pType_0">
        <personTrip from="226041000#0" to="541330444"/>
    </person>
    <person id="123" depart="0.45" type="pType_0">
        <personTrip from="34080174#1" to="420904660#2"/>
    </person>
    <person id="124" depart="0.45" type="pType_0">
        <personTrip from="496983398#0" to="385668565#5"/>
    </person>
    <person id="125" depart="0.45" type="pType_0">
        <personTrip from="388240124#6" to="5669875#0"/>
    </person>
    <person id="126" depart="0.46" type="pType_0">
        <personTrip from="-587038129#1" to="458166892#0"/>
    </person>
    <person id="127" depart="0.46" type="pType_0">
        <personTrip from="693345069#1" to="68674968#4"/>
    </person>
    <person id="128" depart="0.46" type="pType_0">
        <personTrip from="-587038129#1" to="226041001#0"/>
    </person>
    <person id="129" depart="0.47" type="pType_0">
        <personTrip from="381477004#0" to="626226775#4"/>
    </person>
    <person id="130" depart="0.47" type="pType_0">
        <personTrip from="573476360" to="573476359#1"/>
    </person>
    <person id="131" depart="0.47" type="pType_0">
        <personTrip from="420872191" to="222299248#1"/>
    </person>
    <person id="132" depart="0.48" type="pType_0">
        <personTrip from="5672190#2" to="527867887#2"/>
    </person>
    <person id="133" depart="0.48" type="pType_0">
        <personTrip from="46522006#0" to="68674968#0"/>
    </person>
    <person id="134" depart="0.49" type="pType_0">
        <personTrip from="489019752#2" to="-380096992#1"/>
    </person>
    <person id="135" depart="0.49" type="pType_0">
        <personTrip from="5671442#0" to="385668565#5"/>
    </person>
    <person id="136" depart="0.49" type="pType_0">
        <personTrip from="489019754#0" to="630828585#1"/>
    </person>
    <person id="137" depart="0.50" type="pType_0">
        <personTrip from="195743343#1" to="194923808#4"/>
    </person>
    <person id="138" depart="0.50" type="pType_0">
        <personTrip from="194923807#2" to="464683319"/>
    </person>
    <person id="139" depart="0.50" type="pType_0">
        <personTrip from="382532147#0" to="465101198#0"/>
    </person>
    <person id="140" depart="0.51" type="pType_0">
        <personTrip from="541330444" to="226041000#0"/>
    </person>
    <person id="141" depart="0.51" type="pType_0">
        <personTrip from="483236728#3" to="381477004#0"/>
    </person>
    <person id="142" depart="0.51" type="pType_0">
        <personTrip from="458166896#9" to="602266745#1"/>
    </person>
    <person id="143" depart="0.52" type="pType_0">
        <personTrip from="5672273#0" to="157014136#1"/>
    </person>
    <person id="144" depart="0.52" type="pType_0">
        <personTrip from="438385431#5" to="382532607#1"/>
    </person>
    <person id="145" depart="0.53" type="pType_0">
        <personTrip from="-335935797#0" to="5670485"/>
    </person>
    <person id="146" depart="0.53" type="pType_0">
        <personTrip from="483236728#5" to="380147339"/>
    </person>
    <person id="147" depart="0.53" type="pType_0">
        <personTrip from="554083353#0" to="464683319"/>
    </person>
    <person id="148" depart="0.54" type="pType_0">
        <personTrip from="439933932#1" to="-381477004#1"/>
    </person>
    <person id="149" depart="0.54" type="pType_0">
        <personTrip from="-619277987#1" to="584971399"/>
    </person>
    <person id="150" depart="0.54" type="pType_0">
        <personTrip from="597821267#3" to="464515614#1"/>
    </person>
    <person id="151" depart="0.55" type="pType_0">
        <personTrip from="5672190#3" to="46469731#0"/>
    </person>
    <person id="152" depart="0.55" type="pType_0">
        <personTrip from="196117051#2" to="195743182#0"/>
    </person>
    <person id="153" depart="0.55" type="pType_0">
        <personTrip from="388240124#15" to="597821267#0"/>
    </person>
    <person id="154" depart="0.56" type="pType_0">
        <personTrip from="5671393#1" to="5672487#7"/>
    </person>
    <person id="155" depart="0.56" type="pType_0">
        <personTrip from="597821267#0" to="226041000#3"/>
    </person>
    <person id="156" depart="0.57" type="pType_0">
        <personTrip from="368938761#0" to="167923358#0"/>
    </person>
    <person id="157" depart="0.57" type="pType_0">
        <personTrip from="5670719#13" to="587038012"/>
    </person>
    <person id="158" depart="0.57" type="pType_0">
        <personTrip from="426651389#1" to="46581216#3"/>
    </person>
    <person id="159" depart="0.58" type="pType_0">
        <personTrip from="221157083#0" to="626226775#2"/>
    </person>
    <person id="160" depart="0.58" type="pType_0">
        <personTrip from="5672965#3" to="68674961#0"/>
    </person>
    <person id="161" depart="0.58" type="pType_0">
        <personTrip from="5671401#6" to="573476360"/>
    </person>
    <person id="162" depart="0.59" type="pType_0">
        <personTrip from="-420872204" to="543717203#3"/>
    </person>
    <person id="163" depart="0.59" type="pType_0">
        <personTrip from="409716177" to="626226775#3"/>
    </person>
    <person id="164" depart="0.59" type="pType_0">
        <personTrip from="5671401#1" to="5672965#3"/>
    </person>
    <person id="165" depart="0.60" type="pType_0">
        <personTrip from="5671401#6" to="381477008#0"/>
    </person>
    <person id="166" depart="0.60" type="pType_0">
        <personTrip from="5671315" to="194923807#2"/>
    </person>
    <person id="167" depart="0.61" type="pType_0">
        <personTrip from="5673380#2" to="5672487#5"/>
    </person>
    <person id="168" depart="0.61" type="pType_0">
        <personTrip from="226041019" to="5671442#0"/>
    </person>
    <person id="169" depart="0.61" type="pType_0">
        <personTrip from="458166892#1" to="388240124#0"/>
    </person>
    <person id="170" depart="0.62" type="pType_0">
        <personTrip from="5671393#1" to="335935797#0"/>
    </person>
    <person id="171" depart="0.62" type="pType_0">
        <personTrip from="-420872201#2" to="226040997#4"/>
    </person>
    <person id="172" depart="0.62" type="pType_0">
        <personTrip from="398400191#1" to="5672965#3"/>
    </person>
    <person id="173" depart="0.63" type="pType_0">
        <personTrip from="667597422#0" to="382535025#0"/>
    </person>
    <person id="174" depart="0.63" type="pType_0">
        <personTrip from="483236728#7" to="421852618#1"/>
    </person>
    <person id="175" depart="0.63" type="pType_0">
        <personTrip from="68674961#2" to="46334599#1"/>
    </person>
    <person id="176" depart="0.64" type="pType_0">
        <personTrip from="630828585#2" to="194923808#4"/>
    </person>
    <person id="177" depart="0.64" type="pType_0">
        <personTrip from="68668519#0" to="226040993#0"/>
    </person>
    <person id="178" depart="0.65" type="pType_0">
        <personTrip from="664950977#1" to="381477004#0"/>
    </person>
    <person id="179" depart="0.65" type="pType_0">
        <personTrip from="194923807#2" to="447001271#2"/>
    </person>
    <person id="180" depart="0.65" type="pType_0">
        <personTrip from="542257009#1" to="388240124#3"/>
    </person>
    <person id="181" depart="0.66" type="pType_0">
        <personTrip from="46520833#1" to="46139021"/>
    </person>
    <person id="182" depart="0.66" type="pType_0">
        <personTrip from="420901668" to="46469720#1"/>
    </person>
    <person id="183" depart="0.66" type="pType_0">
        <personTrip from="378363533#0" to="540356239#2"/>
    </person>
    <person id="184" depart="0.67" type="pType_0">
        <personTrip from="-194926839#1" to="626226775#0"/>
    </person>
    <person id="185" depart="0.67" type="pType_0">
        <personTrip from="46334599#3" to="541351705"/>
    </person>
    <person id="186" depart="0.67" type="pType_0">
        <personTrip from="554083353#2" to="496983397#1"/>
    </person>
    <person id="187" depart="0.68" type="pType_0">
        <personTrip from="420872186" to="-571651963"/>
    </person>
    <person id="188" depart="0.68" type="pType_0">
        <personTrip from="491162341#1" to="398400192#3"/>
    </person>
    <person id="189" depart="0.68" type="pType_0">
        <personTrip from="388240124#3" to="5672273#1"/>
    </person>
    <person id="190" depart="0.69" type="pType_0">
        <personTrip from="542096278#0" to="385668565#5"/>
    </person>
    <person id="191" depart="0.69" type="pType_0">
        <personTrip from="388240124#15" to="428567988#1"/>
    </person>
    <person id="192" depart="0.70" type="pType_0">
        <personTrip from="421852619#2" to="385668565#2"/>
    </person>
    <person id="193" depart="0.70" type="pType_0">
        <personTrip from="195743165#0" to="438384743"/>
    </person>
    <person id="194" depart="0.70" type="pType_0">
        <personTrip from="630828585#2" to="511809795"/>
    </person>
    <person id="195" depart="0.71" type="pType_0">
        <personTrip from="597821267#3" to="46581216#0"/>
    </person>
    <person id="196" depart="0.71" type="pType_0">
        <personTrip from="385668565#7" to="464515614#2"/>
    </person>
    <person id="197" depart="0.71" type="pType_0">
        <personTrip from="-194926839#1" to="384649120#3"/>
    </person>
    <person id="198" depart="0.72" type="pType_0">
        <personTrip from="44165026" to="46469729"/>
    </person>
    <person id="199" depart="0.72" type="pType_0">
        <personTrip from="489019752#2" to="458166894#0"/>
    </person>
    <person id="200" depart="0.72" type="pType_0">
        <personTrip from="453367786#0" to="226041001#0"/>
    </person>
    <person id="201" depart="0.73" type="pType_0">
        <personTrip from="458166896#1" to="597821267#2"/>
    </person>
    <person id="202" depart="0.73" type="pType_0">
        <personTrip from="5671393#1" to="222299276#5"/>
    </person>
    <person id="203" depart="0.74" type="pType_0">
        <personTrip from="118400729#6" to="46139023#4"/>
    </person>
    <person id="204" depart="0.74" type="pType_0">
        <personTrip from="483236728#3" to="415849235#1"/>
    </person>
    <person id="205" depart="0.74" type="pType_0">
        <personTrip from="5671442#1" to="5669875#0"/>
    </person>
    <person id="206" depart="0.75" type="pType_0">
        <personTrip from="496983398#0" to="22914179#6"/>
    </person>
    <person id="207" depart="0.75" type="pType_0">
        <personTrip from="226040998#0" to="-420872204"/>
    </person>
    <person id="208" depart="0.75" type="pType_0">
        <personTrip from="36806906#0" to="458166896#12"/>
    </person>
    <person id="209" depart="0.76" type="pType_0">
        <personTrip from="5672487#0" to="-587038129#1"/>
    </person>
    <person id="210" depart="0.76" type="pType_0">
        <personTrip from="428569470#2" to="483236728#1"/>
    </person>
    <person id="211" depart="0.76" type="pType_0">
        <personTrip from="226040997#5" to="527856274#0"/>
    </person>
    <person id="212" depart="0.77" type="pType_0">
        <personTrip from="458166897#2" to="36806906#0"/>
    </person>
    <person id="213" depart="0.77" type="pType_0">
        <personTrip from="489019752#3" to="-335935798#1"/>
    </person>
    <person id="214" depart="0.78" type="pType_0">
        <personTrip from="5669875#0" to="5670485"/>
    </person>
    <person id="215" depart="0.78" type="pType_0">
        <personTrip from="194923807#1" to="438390724"/>
    </person>
    <person id="216" depart="0.78" type="pType_0">
        <personTrip from="226040992" to="663499012#0"/>
    </person>
    <person id="217" depart="0.79" type="pType_0">
        <personTrip from="46201642#0" to="-542096278#1"/>
    </person>
    <person id="218" depart="0.79" type="pType_0">
        <personTrip from="368938761#0" to="5672273#1"/>
    </person>
    <person id="219" depart="0.79" type="pType_0">
        <personTrip from="457948937" to="5671401#1"/>
    </person>
    <person id="220" depart="0.80" type="pType_0">
        <personTrip from="496982024#0" to="68674968#0"/>
    </person>
    <person id="221" depart="0.80" type="pType_0">
        <personTrip from="46490538#2" to="663499003#0"/>
    </person>
    <person id="222" depart="0.80" type="pType_0">
        <personTrip from="587061854" to="46522006#1"/>
    </person>
    <person id="223" depart="0.81" type="pType_0">
        <personTrip from="541351705" to="460606347#0"/>
    </person>
    <person id="224" depart="0.81" type="pType_0">
        <personTrip from="5671774#17" to="464515614#2"/>
    </person>
    <person id="225" depart="0.82" type="pType_0">
        <personTrip from="588168464" to="556075521"/>
    </person>
    <person id="226" depart="0.82" type="pType_0">
        <personTrip from="458166896#12" to="380099776"/>
    </person>
    <person id="227" depart="0.82" type="pType_0">
        <personTrip from="368938760#1" to="483236728#5"/>
    </person>
    <person id="228" depart="0.83" type="pType_0">
        <personTrip from="5670317#7" to="46334595#1"/>
    </person>
    <person id="229" depart="0.83" type="pType_0">
        <personTrip from="46581216#6" to="382532607#0"/>
    </person>
    <person id="230" depart="0.83" type="pType_0">
        <personTrip from="-619277987#2" to="384649120#2"/>
    </person>
    <person id="231" depart="0.84" type="pType_0">
        <personTrip from="382532147#0" to="389590214#1"/>
    </person>
    <person id="232" depart="0.84" type="pType_0">
        <personTrip from="46334599#6" to="195745915#0"/>
    </person>
    <person id="233" depart="0.84" type="pType_0">
        <personTrip from="335935798#1" to="527855922#1"/>
    </person>
    <person id="234" depart="0.85" type="pType_0">
        <personTrip from="530038709#1" to="-5672190#2"/>
    </person>
    <person id="235" depart="0.85" type="pType_0">
        <personTrip from="426651389#1" to="464515614#0"/>
    </person>
    <person id="236" depart="0.86" type="pType_0">
        <personTrip from="428569470#4" to="226041000#2"/>
    </person>
    <person id="237" depart="0.86" type="pType_0">
        <personTrip from="438384743" to="602266745#1"/>
    </person>
    <person id="238" depart="0.86" type="pType_0">
        <personTrip from="46469731#1" to="527855922#1"/>
    </person>
    <person id="239" depart="0.87" type="pType_0">
        <personTrip from="5672487#3" to="5670317#5"/>
    </person>
    <person id="240" depart="0.87" type="pType_0">
        <personTrip from="420872204" to="-335935798#1"/>
    </person>
    <person id="241" depart="0.87" type="pType_0">
        <personTrip from="420519634#0" to="5669875#1"/>
    </person>
    <person id="242" depart="0.88" type="pType_0">
        <personTrip from="5672487#10" to="663499007#3"/>
    </person>
    <person id="243" depart="0.88" type="pType_0">