<?xml version="1.0" encoding="UTF-8"?>

<!-- generated on 2022-02-01 22:30:00 by Eclipse SUMO duarouter Version 1.12.0
<configuration xmlns:xsi="http://www.w3.org/2001/XMLSchema-instance" xsi:noNamespaceSchemaLocation="http://sumo.dlr.de/xsd/duarouterConfiguration.xsd">

    <input>
        <net-file value="../../manhattan_2km.net.xml"/>
        <additional-files value="type-ped.add.xml"/>
        <route-files value="trips.trips.xml"/>
    </input>

    <output>
        <output-file value="manhattanPed.rou.xml"/>
        <alternatives-output value="manhattanPed.rou.alt.xml"/>
    </output>

    <time>
        <begin value="0"/>
        <end value="10"/>
    </time>

    <report>
        <no-warnings value="true"/>
        <ignore-errors value="true"/>
        <no-step-log value="true"/>
    </report>

</configuration>
-->

<routes xmlns:xsi="http://www.w3.org/2001/XMLSchema-instance" xsi:noNamespaceSchemaLocation="http://sumo.dlr.de/xsd/routes_file.xsd">
    <person id="0" type="pType_0" depart="0.00">
        <walk edges="483236728#6 458166897#1 458166897#0 380147339 381477008#0 46469729 157014137#0 157014137#1 157014137#2 421852618#0 421852618#1 420872188#1 420872204 -420872204"/>
    </person>
    <person id="1" type="pType_0" depart="0.02">
        <walk edges="382532607#1 5672965#3 5672965#2 491162341#1 167923358#0 46581216#6 46581216#5 46581216#4 46581216#3 46581216#2 226041019"/>
    </person>
    <person id="2" type="pType_0" depart="0.04">
        <walk edges="543717203#3 543717203#2 483704511#1 68668552#1 587061854 464515614#3 464515614#2 464515614#1 464515614#0 588168464 195743343#1 195743343#0 458166892#1 496983399#0 496983399#1"/>
    </person>
    <person id="3" type="pType_0" depart="0.06">
        <walk edges="587061854 464515614#3 5671401#0 196117042#2 447001272#0 447001272#1 447001272#2 420499932#0 46520833#1 389590214#1 5673380#2 571651963 -542096278#2 542096278#0 587038129#0 420872212 -420872209 5670317#7 5670317#5 144001605#1"/>
    </person>
    <person id="4" type="pType_0" depart="0.08">
        <walk edges="438385431#4 438385431#5 420496529 458166892#0 458166892#1 -420904659"/>
    </person>
    <person id="5" type="pType_0" depart="0.10">
        <walk edges="226041001#4 226041001#5 36806906#0 384649120#3 384649120#2 384649120#1 587038081#1 496983396#0 496983397#1 496982024#0 439933932#1 460606347#2 460606347#1 460606347#0"/>
    </person>
    <person id="6" type="pType_0" depart="0.12">
        <walk edges="-420872209 420872212 587038129#0 542096278#0 -542096278#2 571651963 5673380#2 389590214#1 573476359#1 447001270 464683341#0 226040998#0"/>
    </person>
    <person id="7" type="pType_0" depart="0.14">
        <walk edges="489019752#0 5670296#3 5670296#2 5670296#1 5670296#0 464515614#3 464515614#2 464515614#1"/>
    </person>
    <person id="8" type="pType_0" depart="0.16">
        <walk edges="226041001#5 195743182#2 483236728#1 483236728#3 483236728#4 483236728#5 458166897#1 458166897#0 380147339 381477008#0 46469729 157014137#0 157014137#1 157014137#2 421852618#0 421852618#1 46469732#0"/>
    </person>
    <person id="9" type="pType_0" depart="0.18">
        <walk edges="5671401#4 458166896#9 5672487#5 5672487#3 5672487#1 5672487#0 222299248#1 420872191 420872193#0 420872193#1 420872186 -335935798#1"/>
    </person>
    <person id="10" type="pType_0" depart="0.20">
        <walk edges="5671401#12 420872184 420872190 381474197#1 420872194#0 118400729#12 118400729#9 118400729#6 118400729#5 118400729#1 420872204 556075521 426651389#0 527867881#0"/>
    </person>
    <person id="11" type="pType_0" depart="0.22">
        <walk edges="420499931#0 458177128#2 458177128#0 46469720#1 46469720#0 380147339 381477008#0 46469729 157014137#0 157014137#1 157014137#2 421852618#0 421852618#1 420872188#1 118400729#1 118400729#5 118400729#6 118400729#9 118400729#12 420872194#0 381474197#1 420872190 420872184 222299248#0"/>
    </person>
    <person id="12" type="pType_0" depart="0.24">
        <walk edges="663499009#1 543717203#3 543717203#2 491162341#1 167923358#0 46581216#6 46581216#5 46581216#4 46581216#3 46581216#2 46581216#1 46581216#0 693345069#1 415849235#1 415849235#2"/>
    </person>
    <person id="13" type="pType_0" depart="0.26">
        <walk edges="157014136#1 430380404#1 394355248#2 335935799#0 420872181 420872186 420872193#1 420872193#0 420872191 222299248#1 222299248#0 420872184 420872190 381474197#1 420872194#0 118400729#12 118400729#9 118400729#6 118400729#5 118400729#1 420872188#1 421852618#1 421852618#0 157014137#2 157014137#1 157014137#0"/>
    </person>
    <person id="14" type="pType_0" depart="0.28">
        <walk edges="5672273#1 428567988#1 483704511#1 5672965#2 5672965#3 -465101198#1 465101198#0"/>
    </person>
    <person id="15" type="pType_0" depart="0.30">
        <walk edges="5671401#3 5671401#1 5671401#0 5670719#14 5670719#13 46581216#4 46581216#3 46581216#2 46581216#1 46581216#0 693345069#1 460606348#1 460606347#0 460606347#1 460606347#2 439933932#1 496982024#0 496983397#1 496983396#0 587038081#1 384649120#1 384649120#2 542257009#1 542257009#2"/>
    </person>
    <person id="16" type="pType_0" depart="0.32">
        <walk edges="46334599#1 46334599#0 456308943#1 5670876#1 5670876#0 68668541#0"/>
    </person>
    <person id="17" type="pType_0" depart="0.34">
        <walk edges="420872201#2 420872201#1 -420872201#0 194926839#1 430380404#1 394355248#2 335935799#0 420872181 195745915#0 195745914#0 525768549#1 464683336 464683318 464683319"/>
    </person>
    <person id="18" type="pType_0" depart="0.36">
        <walk edges="5671774#14 5671774#17 -420519634#1 438390724 -420598373 -428569356 587038012 -526571477#2 526571477#1 543717203#3 543717203#2 491162341#1 167923358#0 46581216#6 46581216#5 46581216#4 46581216#3 46581216#2"/>
    </person>
    <person id="19" type="pType_0" depart="0.38">
        <walk edges="5672965#2 483704511#1 68668552#1 5669875#0 5669875#1 5669875#2 196117042#0 196117042#1 196117042#2 447001272#0 447001272#1 447001272#2 420499932#0 46520833#1 389590214#1 5673380#2 573476360 68674961#1 68674961#2 458177128#0 46469720#1"/>
    </person>
    <person id="20" type="pType_0" depart="0.40">
        <walk edges="527867887#2 -556075521 420872204 554083352#0 587038129#0 542096278#0 -542096278#2 571651963 -384178814 -420904658 -420904659 -496982022#0"/>
    </person>
    <person id="21" type="pType_0" depart="0.42">
        <walk edges="335935797#0 -335935797#1 194923807#1 194923807#0 -420872201#2 420872201#1 -420872201#0 194926839#1 430380404#1 -489019753#2 -420519634#1 438390724 -420598373 -428569356 587038012 -526571477#2 526571477#1 385106581#1"/>
    </person>
    <person id="22" type="pType_0" depart="0.44">
        <walk edges="118400729#12 420872194#0 381474197#1 420872190 420872184 222299248#0 222299248#1 420872191 420872193#0 420872193#1 420872186 420872181 335935799#0"/>
    </person>
    <person id="23" type="pType_0" depart="0.46">
        <walk edges="157014137#2 421852618#0 421852618#1 420872188#1 118400729#1 118400729#5 118400729#6 118400729#9 118400729#12 420872194#0 381474197#1 420872190 420872184 222299248#0 222299248#1 420872191 420872193#0 420872193#1 420872186 420872181 335935799#0 394355248#2 -489019753#2 -420519634#1 438390724 -420598373 -428569356 587038012 -526571477#2 526571477#1 5671620#1 382535022#0"/>
    </person>
    <person id="24" type="pType_0" depart="0.48">
        <walk edges="483236728#4 483236728#5 458166897#1 458166897#0 380147339 381477008#0 46469729 157014137#0 157014137#1 157014137#2 421852618#0 421852618#1 420872188#1 118400729#1 118400729#5 118400729#6 118400729#9 118400729#12 420872194#0 381474197#1 420872190 420872184 222299248#0 222299248#1 420872191 420872193#0 420872193#1 420872186"/>
    </person>
    <person id="25" type="pType_0" depart="0.49">
        <walk edges="420872191 222299248#1 222299248#0 420872184 420872190 381474197#1 420872194#0 118400729#12 118400729#9 118400729#6 118400729#5 118400729#1 420872188#1 421852618#1 421852618#0 157014137#2 157014137#1 157014137#0 46469729 420901683#0 420901668 420901679 226041000#0 226041000#1 226041000#2 226041000#3"/>
    </person>
    <person id="26" type="pType_0" depart="0.51">
        <walk edges="381477008#0 380147339 587038101 554083353#2 554083353#0 542096278#0 -542096278#2 571651963 5673380#2 389590214#1 46520833#1 420499932#0 447001272#2 447001271#2 46490538#0 46490538#1 46490538#2 46490538#3 46490538#5 46490538#6 489019752#4 489019752#3 489019752#2 489019752#1 489019752#0 630828585#0"/>
    </person>
    <person id="27" type="pType_0" depart="0.53">
        <walk edges="483704512#0 5672273#1 428567988#1 68668552#1 587061854 464515614#3 464515614#2 464515614#1 464515614#0 588168464 195743343#1 46520833#3"/>
    </person>
    <person id="28" type="pType_0" depart="0.55">
        <walk edges="222299276#8 5672190#2 5672190#3 -5672190#4 118400729#1 420872188#1 421852618#1 421852618#0 157014137#2 157014137#1 157014137#0 46469729 381477008#0 380147339 458166897#0 458166897#1 483236728#5 483236728#4 483236728#3 483236728#1 483236728#0 542257009#5 542257009#4 542257009#2"/>
    </person>
    <person id="29" type="pType_0" depart="0.57">
        <walk edges="222299276#2 222299276#0 438384743 194923807#9 194923807#6 194923807#3 194923807#2 194923807#1 194923807#0 -420872201#2 420872201#2"/>
    </person>
    <person id="30" type="pType_0" depart="0.59">
        <walk edges="68674968#1 483236728#3 483236728#4 483236728#5 483236728#6"/>
    </person>
    <person id="31" type="pType_0" depart="0.61">
        <walk edges="464683322 464683318 464683339#2 464683339#1 196117051#2 464683341#1 464683341#0 447001270 573476359#1 389590214#1 5673380#2 571651963 -542096278#2 542096278#0 554083353#0 518451327#1"/>
    </person>
    <person id="32" type="pType_0" depart="0.63">
        <walk edges="5672211#3 5672211#2 5672211#0 5670673#1"/>
    </person>
    <person id="33" type="pType_0" depart="0.65">
        <walk edges="335935797#1 -335935797#1 194923807#1 194923807#0 -420872201#2 420872201#1 -420872201#0 194926839#1 430380404#1 -489019753#2 -420519634#1 438390724 -420598373 -428569356"/>
    </person>
    <person id="34" type="pType_0" depart="0.67">
        <walk edges="388240124#3 597821267#0 597821267#2 597821267#3 420872191 222299248#1 222299248#0 420872184 420872190 381474197#1 420872194#0 118400729#12 118400729#9 118400729#6 118400729#5 118400729#1 420872188#1 5670317#7 46139023#4 46334595#1 381480256#1"/>
    </person>
    <person id="35" type="pType_0" depart="0.69">
        <walk edges="226041000#4 5673626#1 5673626#0 380147339 587038101 554083353#2 554083353#0 542096278#0 -542096278#2 571651963 5673380#2 389590214#1 46520833#1 420499932#0 447001272#2 447001272#1 447001272#0 196117042#2 196117042#1 196117042#0 5669875#2 5669875#1 5669875#0 68668552#1 483704511#1 396444294#14 396444294#13 630828586#1"/>
    </person>
    <person id="36" type="pType_0" depart="0.71">
        <walk edges="5673626#1 5673626#0 380147339 587038101 554083353#2 554083353#0 587061869#2 587061869#0 388240124#21 388240124#18 388240124#15 388240124#12 388240124#9 388240124#6 388240124#3"/>
    </person>
    <person id="37" type="pType_0" depart="0.73">
        <walk edges="489019752#3 489019752#4 68668519#0 68668519#1 460606347#0 460606347#1 460606347#2 439933932#1 496982024#0 496983397#1 496983396#0 587038081#1 384649120#1 420904660#2"/>
    </person>
    <person id="38" type="pType_0" depart="0.75">
        <walk edges="602266745#6 5672190#2 5672190#3 -5672190#4 118400729#1 554083352#0 587038129#0 542096278#0 -542096278#2 541351705 518451322 458166893#2 458166893#0 5673231 458166892#0"/>
    </person>
    <person id="39" type="pType_0" depart="0.77">
        <walk edges="381477004#0 -381477004#1 664660185 368938760#1 368938760#0"/>
    </person>
    <person id="40" type="pType_0" depart="0.79">
        <walk edges="464683336 409716177 458166896#15 428569470#2 428569470#4 597821267#0 597821267#2 597821267#3 420872191 222299248#1 222299248#0 420872184 420872190 381474197#1"/>
    </person>
    <person id="41" type="pType_0" depart="0.81">
        <walk edges="46469731#1 573476360 5673380#2 389590214#1 46520833#1 420499932#0 5671693#0 588168464"/>
    </person>
    <person id="42" type="pType_0" depart="0.83">
        <walk edges="421852618#1 421852618#0 157014137#2 157014137#1 157014137#0 46469729 381477008#0 380147339 458166897#0 458166897#1 483236728#5 483236728#4 483236728#3 68674968#0 226041001#2 226041001#3 226041001#4"/>
    </person>
    <person id="43" type="pType_0" depart="0.85">
        <walk edges="690414969 460606347#2 460606347#1 460606347#0 460606348#1"/>
    </person>
    <person id="44" type="pType_0" depart="0.87">
        <walk edges="144001606#1 -556075521 420872204 118400729#1 118400729#5 118400729#6 118400729#9 118400729#12 420872194#0 381474197#1 420872190 420872184 222299248#0 222299248#1 420872191 420872193#0 420872193#1 420872186 420872181 335935799#0 394355248#2 -489019753#2 -420519634#1 438390724 -420598373 -428569356 587038012 -526571477#2 -526571477#1"/>
    </person>
    <person id="45" type="pType_0" depart="0.89">
        <walk edges="194923807#3 -619277987#2 619277987#1 380096992#1 420872191 222299248#1 222299248#0 420872184 420872190 381474197#1 420872194#0 118400729#12 118400729#9 118400729#6 118400729#5 118400729#1 420872188#1 421852618#1 421852618#0 157014137#2 157014137#1 157014137#0 46469729 381477008#0 380147339 458166897#0 458166897#1 483236728#5 483236728#4 483236728#3 483236728#1 483236728#0"/>
    </person>
    <person id="46" type="pType_0" depart="0.91">
        <walk edges="5671349#2 5671349#3 226041000#0 226041000#1 226041000#2 226041000#3 226041000#4 226040999 226041001#0 226041001#2 226041001#3 226041001#4 226041001#5 438385431#4"/>
    </person>
    <person id="47" type="pType_0" depart="0.93">
        <walk edges="-5672190#2 5672190#3 -5672190#4 118400729#1 420872204"/>
    </person>
    <person id="48" type="pType_0" depart="0.95">
        <walk edges="68674968#4 68674965 573476359#1 385668565#0 385668565#1 458166896#2 46334598#3 46334598#2"/>
    </person>
    <person id="49" type="pType_0" depart="0.97">
        <walk edges="68668519#1 460606348#1 693345069#1 46581216#0 46581216#1 46581216#2 46581216#3 46581216#4 46581216#5 5670296#0 5672487#11 5672487#10 5672487#7"/>
    </person>
    <person id="50" type="pType_0" depart="0.99">
        <walk edges="-381477008#1 380147339 587038101 554083353#2 554083353#0 542096278#0"/>
    </person>
    <person id="51" type="pType_0" depart="1.01">
        <walk edges="518451322 541351705 -542096278#2 542096278#0 587061869#2 587061869#0 388240124#21 388240124#18 388240124#15 388240124#12 388240124#9 388240124#6 388240124#3 388240124#0 221157083#0 489019754#0 5671774#17 46334599#3"/>
    </person>
    <person id="52" type="pType_0" depart="1.03">
        <walk edges="381477008#0 5673626#0 483236728#7"/>
    </person>
    <person id="53" type="pType_0" depart="1.05">
        <walk edges="194923807#6 -619277987#2 619277987#1 380096992#1 420872191 222299248#1 222299248#0 420872184 420872190 222299258#0 226040993#0 226040993#2 226040993#3 226040993#5 420514149#0 226040996#0 447001272#1 447001271#2"/>
    </person>
    <person id="54" type="pType_0" depart="1.07">
        <walk edges="456308944 5672211#2 5672211#3 663499007#3"/>
    </person>
    <person id="55" type="pType_0" depart="1.09">
        <walk edges="5673626#1 5673626#0 381477008#0 46469729 157014137#0 157014137#1 157014137#2 421852618#0 421852618#1 420872188#1 118400729#1 118400729#5 118400729#6 118400729#9 118400729#12 420872194#0 381474197#1"/>
    </person>
    <person id="56" type="pType_0" depart="1.11">
        <walk edges="458177133#1 458177133#2 458177129 518451322 541351705 -542096278#2 542096278#0 587061869#2 587061869#0 388240124#21 388240124#18 388240124#15 388240124#12 226040993#0"/>
    </person>
    <person id="57" type="pType_0" depart="1.13">
        <walk edges="602266745#5 602266745#4 5672190#2 5672190#3 -5672190#4 540356239#1 540356239#2 540356239#4 540356239#6 540356239#7 389590214#1 573476359#1 5673380#0"/>
    </person>
    <person id="58" type="pType_0" depart="1.15">
        <walk edges="385668565#3 388240124#21 587061869#0 587061869#2 554083353#0 554083353#2 587038101 458166897#0 458166897#1 483236728#6"/>
    </person>
    <person id="59" type="pType_0" depart="1.17">
        <walk edges="46520833#3 195743343#1 588168464 464515614#0 464515614#1 464515614#2 464515614#3 587061854 68668552#1 483704511#1 5672965#2 5672965#3 -465101198#1 196117090#7"/>
    </person>
    <person id="60" type="pType_0" depart="1.19">
        <walk edges="5670296#3 5670296#2 5670296#1 46581216#6 167923358#0 491162341#1 543717203#2 543717203#3 526571477#1 -526571477#2 587038012 -428569356 -420598373 438390724 -420519634#1 -489019753#2 430380404#1 157014136#1 46334599#6"/>
    </person>
    <person id="61" type="pType_0" depart="1.21">
        <walk edges="5670719#13 5670719#14 5671401#0 196117042#2 420514148#1 420514149#0 226040998#0 458166896#3 46334598#3"/>
    </person>
    <person id="62" type="pType_0" depart="1.23">
        <walk edges="-194926839#1 194926839#1 430380404#1 -489019753#2 -420519634#1 438390724 -420598373 -428569356 587038012 -526571477#2 526571477#1 543717203#3 543717203#2 396444294#14 396444294#13"/>
    </person>
    <person id="63" type="pType_0" depart="1.25">
        <walk edges="-420872201#0 420872201#1 -420872201#2 194923807#0 194923807#1 194923807#2 380099776 626226775#0 626226775#1 626226775#2"/>
    </person>
    <person id="64" type="pType_0" depart="1.27">
        <walk edges="573476359#1 447001270 464683341#0 464683341#1 196117051#2 464683339#1 464683339#2 464683318 464683336 525768550 438390724 -420519634#1 5671774#17"/>
    </person>
    <person id="65" type="pType_0" depart="1.29">
        <walk edges="388240124#12 388240124#9 388240124#6 388240124#3 388240124#0 221157083#0 195745914#0 525768549#1 525768550 -420598373 -428569356 587038012 -526571477#2 526571477#1 -5671620#1"/>
    </person>
    <person id="66" type="pType_0" depart="1.31">
        <walk edges="571651963 -542096278#2 542096278#0 587038129#0 554083352#0 118400729#1 -5672190#4 5672190#3 5672190#2 222299276#5 222299276#4 222299276#3 222299276#2 222299276#0 438384743 5671402 641914938"/>
    </person>
    <person id="67" type="pType_0" depart="1.33">
        <walk edges="118400729#9 118400729#12 420872194#0 381474197#1 222299258#0 226040993#0 226040993#2 226040993#3 458166896#6"/>
    </person>
    <person id="68" type="pType_0" depart="1.35">
        <walk edges="-571651963 5673380#2 389590214#1 46520833#1 420499932#0 447001272#2 447001272#1 447001272#0 196117042#2 5671401#0 464515614#3 5670296#0 5670296#1 5670296#2"/>
    </person>
    <person id="69" type="pType_0" depart="1.37">
        <walk edges="5670317#7 421852618#1 421852618#0 157014137#2 157014137#1 157014137#0 46469729 381477008#0 380147339 46469720#0 46469720#1 458177128#0 458177128#2 195743182#0"/>
    </person>
    <person id="70" type="pType_0" depart="1.39">
        <walk edges="458166896#12 5672487#7 5672487#10 5672487#11 464515614#3"/>
    </person>
    <person id="71" type="pType_0" depart="1.41">
        <walk edges="381477004#0 -381477004#1 46201642#0 381477008#0 380147339 587038101 554083353#2 554083353#0 542096278#0 -542096278#2 571651963 5673380#2"/>
    </person>
    <person id="72" type="pType_0" depart="1.43">
        <walk edges="438385431#5 483236728#0 483236728#1 483236728#3 483236728#4 483236728#5 483236728#6 5673626#1 226041000#4"/>
    </person>
    <person id="73" type="pType_0" depart="1.45">
        <walk edges="46334599#6 157014136#1 430380404#1 -489019753#2 -420519634#1 438390724 -420598373 -428569356 587038012 -526571477#2 526571477#1 543717203#3 543717203#2 491162341#1 167923358#0 46581216#6 46581216#5 46581216#4 46581216#3 46581216#2 46581216#1 46581216#0 693345069#1 460606348#1 460606347#0 460606347#1 460606347#2 439933932#1 496982024#0 496983397#1 496983396#0 587038081#1 384649120#1 384649120#2 542257009#1 542257009#2"/>
    </person>
    <person id="74" type="pType_0" depart="1.47">
        <walk edges="226040999 458166897#2 458166897#1 458166897#0 587038101 554083353#2 554083353#0 587061869#2 587061869#0 388240124#21 388240124#18"/>
    </person>
    <person id="75" type="pType_0" depart="1.49">
        <walk edges="68674968#4 -420904658 420499932#2 420499932#0 447001272#2 447001271#2 46490538#0 46490538#1 46490538#2 46490538#3 46490538#5 46490538#6 489019752#4 489019752#3 489019752#2 489019752#1 489019752#0"/>
    </person>
    <person id="76" type="pType_0" depart="1.50">
        <walk edges="447001272#1 447001272#2 420499932#0 46520833#1 389590214#1 5673380#2 571651963 -542096278#2 542096278#0 554083353#0 554083353#2 587038101 380147339 381477008#0 46201642#0"/>
    </person>
    <person id="77" type="pType_0" depart="1.52">
        <walk edges="194923808#8 194923808#7 46334599#6 46334599#3 46334599#1 46334599#0 456308943#1 5670876#1 5670876#0 22914179#6"/>
    </person>
    <person id="78" type="pType_0" depart="1.54">
        <walk edges="420496529 458166892#0 46469731#3"/>
    </person>
    <person id="79" type="pType_0" depart="1.56">
        <walk edges="335935797#1 -335935797#1 194923807#2 194923807#3 -619277987#2 619277987#1 380096992#1 420872191 222299248#1 222299248#0 420872184 420872190 381474197#1 420872194#0 118400729#12 118400729#9 118400729#6 118400729#5 118400729#1 420872188#1 421852618#1 421852618#0 157014137#2 157014137#1 157014137#0 46469729 381477008#0 380147339 458166897#0 458166897#1 483236728#5 483236728#4 483236728#3 483236728#1 195743182#2 226041001#5"/>
    </person>
    <person id="80" type="pType_0" depart="1.58">
        <walk edges="-587038012 -428569356 -420598373 420519635#0 464683336 464683318 464683339#2 464683339#1 196117051#2 420514149#0 464683341#0 447001270 573476359#1 389590214#1 5673380#2 571651963 -542096278#2 542096278#0 554083353#0 554083353#2 587038101 380147339 5673626#0 483236728#7 483236728#8 483236728#9 483236728#10"/>
    </person>
    <person id="81" type="pType_0" depart="1.60">
        <walk edges="335935797#1 -335935797#1 194923807#2 194923807#3 194923807#6 194923807#9 438384743 222299276#0 222299276#2 222299276#3 222299276#4 222299276#5 602266745#1"/>
    </person>
    <person id="82" type="pType_0" depart="1.62">
        <walk edges="5672487#5 458166896#12 458166896#15 409716177 464683336 420519635#0 -420598373 -428569356 -587038012"/>
    </person>
    <person id="83" type="pType_0" depart="1.64">
        <walk edges="34079830#0 5671774#14 5671774#17 -420519634#1 438390724 -420598373 -428569356 587038012 -526571477#2 526571477#1 543717203#3 543717203#2 491162341#1 167923358#0 46581216#6 46581216#5 46581216#4 46581216#3 46581216#2 46581216#1 46581216#0 693345069#1 460606348#1 460606347#0 460606347#1 460606347#2 439933932#1 496982024#0 496983397#1 496983396#0"/>
    </person>
    <person id="84" type="pType_0" depart="1.66">
        <walk edges="226041001#2 68674968#0 483236728#1 483236728#0 438385431#5 420496529 458166892#0 458166892#1 195743343#0"/>
    </person>
    <person id="85" type="pType_0" depart="1.68">
        <walk edges="630828585#0 489019752#0 5670296#3 5670296#2 5670296#1 5670296#0 464515614#3 5671401#0 196117042#2 420514148#1 464683341#1"/>
    </person>
    <person id="86" type="pType_0" depart="1.70">
        <walk edges="458166896#1 540356239#6 540356239#7 389590214#1 573476359#1 447001270 464683341#0 464683341#1 464683339#0 464683339#1 464683339#2 464683318 464683336 525768550 464683329#0 456308943#1 5670876#1"/>
    </person>
    <person id="87" type="pType_0" depart="1.72">
        <walk edges="5671401#3 5671401#4 5671401#6 5671401#9 5671401#11 5671401#12 420872184 420872190 381474197#1 226040997#2 226040997#3"/>
    </person>
    <person id="88" type="pType_0" depart="1.74">
        <walk edges="157014137#0 157014137#1 157014137#2 421852618#0 421852618#1 -420872209 420872212 587038129#0 542096278#0 -542096278#2 571651963 5673380#2 389590214#1 573476359#1 447001270"/>
    </person>
    <person id="89" type="pType_0" depart="1.76">
        <walk edges="438385431#5 483236728#0 195743182#0 458177128#2 458177128#0 458177129 458166895#0"/>
    </person>
    <person id="90" type="pType_0" depart="1.78">
        <walk edges="542257009#2 542257009#1 384649120#2 384649120#1 587038081#1 496983398#0"/>
    </person>
    <person id="91" type="pType_0" depart="1.80">
        <walk edges="68674961#4 483236728#3 483236728#4 483236728#5 458166897#1 458166897#0 380147339 381477008#0 46469729 157014137#0 157014137#1"/>
    </person>
    <person id="92" type="pType_0" depart="1.82">
        <walk edges="421852619#2 157014137#2 157014137#1 157014137#0 46469729 381477008#0 380147339 46469720#0 46469720#1 458177128#0 458177128#2 420499931#0 420496529"/>
    </person>
    <person id="93" type="pType_0" depart="1.84">
        <walk edges="5672965#2 483704511#1 68668552#1 5669875#0 5669875#1 5669875#2 196117042#0 196117042#1 196117042#2 447001272#0 447001272#1 447001272#2 420499932#0 46520833#1 389590214#1 5673380#2 571651963 -542096278#2 542096278#0 554083353#0 554083353#2 587038101 380147339 381477008#0 46201642#0 664660185 368938760#1"/>
    </person>
    <person id="94" type="pType_0" depart="1.86">
        <walk edges="226040997#3 226040997#2 420872194#0 118400729#12 118400729#9 118400729#6 118400729#5 118400729#1 420872188#1 421852618#1 421852618#0 157014137#2 157014137#1 157014137#0 46469729 46201642#0 -381477004#1 453367786#1 453367786#2 453367786#3 453367786#4"/>
    </person>
    <person id="95" type="pType_0" depart="1.88">
        <walk edges="438385431#4 438385431#5 420496529 458166892#0 458166892#1 195743343#0 195743343#1 588168464 464515614#0 464515614#1 464515614#2 464515614#3 587061854 68668552#1 483704511#1 5672965#2 5672965#3 382535022#0"/>
    </person>
    <person id="96" type="pType_0" depart="1.90">
        <walk edges="368938761#0 368938762#0 420872177 144001605#3 144001605#1 144001606#1 222299276#9 222299276#8 222299276#5 222299276#4 222299276#3 222299276#2 222299276#0 5670485 619277989#0 619277989#1 619277989#2"/>
    </person>
    <person id="97" type="pType_0" depart="1.92">
        <walk edges="453367786#1 -381477004#1 46201642#0 381477008#0 380147339 587038101 554083353#2 554083353#0 542096278#0 -542096278#2 458166896#0 458166896#1 458166896#2 458166896#3 458166896#4 458166896#6 458166896#9 5672487#7"/>
    </person>
    <person id="98" type="pType_0" depart="1.94">
        <walk edges="464683318 464683339#2 464683339#1 196117051#2 464683341#1 464683341#0 447001270 573476359#1 389590214#1 5673380#2 571651963 -542096278#2 -542096278#1"/>
    </person>
    <person id="99" type="pType_0" depart="1.96">
        <walk edges="693345069#1 415849235#1 415849235#2 5671693#0 420499932#0 46520833#1 389590214#1 540356239#7 540356239#6 540356239#4 540356239#2 540356239#1 -5672190#4 5672190#4"/>
    </person>
    <person id="100" type="pType_0" depart="1.98">
        <walk edges="68668519#0 46490538#6 46490538#5 46581216#0 46581216#1 46581216#2 46581216#3 46581216#4 46581216#5 46581216#6 46334600#0 5669875#0 5669875#1 5669875#2 464683321 428569470#0 428569470#2 428569470#4 388240124#0 511973084#0 626226775#4 626226775#3 626226775#2 626226775#1"/>
    </person>
    <person id="101" type="pType_0" depart="2.00">
        <walk edges="5672273#1 428567988#1 68668552#1 5669875#0 5669875#1 5669875#2 464683321 428569470#0 428569470#2 428569470#4 597821267#0 597821267#2 597821267#3 -380096992#1 -619277987#1 5671699#1 5671699#0 641914938 5671402 438384743 222299276#0 222299276#2 222299276#3 222299276#4"/>
    </person>
    <person id="102" type="pType_0" depart="2.02">
        <walk edges="458166896#6 458166896#4 458166896#3 458166896#2 458166896#1 458166896#0 541351705 518451322 458177129 458177133#2 458177133#1 226041001#0"/>
    </person>
    <person id="103" type="pType_0" depart="2.04">
        <walk edges="421852619#1 46469722 554083353#2 554083353#0 542096278#0 -542096278#2 571651963 5673380#2 389590214#1 46520833#1 420499932#0 447001272#2 447001272#1 447001272#0 196117042#2 196117042#1 196117042#0 667597422#0 5671393#2 5671393#1 -526571477#2 526571477#1 -5671620#1"/>
    </person>
    <person id="104" type="pType_0" depart="2.06">
        <walk edges="420872201#2 420872201#1 -420872201#0 194926839#1 430380404#1 394355248#2 335935799#0 420872181 420872186 420872193#1 420872193#0 420872191 222299248#1 222299248#0 420872184 420872190 222299258#0 226040993#0 226040993#2 226040993#3 226040993#5 420514149#0 464683341#0 447001270 573476359#1 68674965"/>
    </person>
    <person id="105" type="pType_0" depart="2.08">
        <walk edges="381477004#0 -381477004#1 46201642#0 46469729 157014137#0 157014137#1 157014137#2 421852618#0 421852618#1 420872188#1 118400729#1 118400729#5 118400729#6 118400729#9 118400729#12 420872194#0 381474197#1 420872190 420872184 222299248#0 222299248#1 420872191 420872193#0 420872193#1 420872186 420872181 335935799#0 394355248#2 -489019753#2 -420519634#1 438390724 -420598373 -428569356 587038012 -526571477#2 526571477#1 5671620#1 34080508#1 5670876#0"/>
    </person>
    <person id="106" type="pType_0" depart="2.10">
        <walk edges="456308945 464683329#0 -420598373 -428569356 587038012 -526571477#2 526571477#1 543717203#3 543717203#2 483704511#1 68668552#1 587061854 464515614#3 464515614#2 464515614#1 464515614#0 588168464 195743343#1 195743343#0 458166892#1 458166892#0 420496529 438385431#5"/>
    </person>
    <person id="107" type="pType_0" depart="2.12">
        <walk edges="663499009#1 526571477#1 -526571477#2 5671393#1 5671393#2 667597422#0 196117042#0 196117042#1 196117042#2 447001272#0 447001272#1 447001272#2 420499932#0 420499932#2 -420904658 68674968#4"/>
    </person>
    <person id="108" type="pType_0" depart="2.14">