<?xml version="1.0" encoding="UTF-8"?>

<!-- generated on qua 30 set 2020 13:14:48 -03 by Eclipse SUMO netedit Version v1_5_0+0464-744bef2e7c
<configuration xmlns:xsi="http://www.w3.org/2001/XMLSchema-instance" xsi:noNamespaceSchemaLocation="http://sumo.dlr.de/xsd/netconvertConfiguration.xsd">

    <input>
        <sumo-net-file value="/home/paulo/Documentos/mestrado/pesquisa/urban-medium/v2/manhattan_2km.net.xml"/>
    </input>

    <output>
        <output-file value="/home/paulo/Documentos/mestrado/pesquisa/urban-medium/v2/manhattan_2km.net.xml"/>
    </output>

    <processing>
        <geometry.min-radius.fix.railways value="false"/>
        <geometry.max-grade.fix value="false"/>
        <offset.disable-normalization value="true"/>
        <lefthand value="false"/>
    </processing>

    <junctions>
        <no-turnarounds value="true"/>
        <junctions.corner-detail value="5"/>
        <junctions.limit-turn-speed value="5.5"/>
        <rectangular-lane-cut value="false"/>
    </junctions>

    <pedestrian>
        <walkingareas value="false"/>
    </pedestrian>

    <netedit>
        <route-files value="/home/paulo/Documentos/mestrado/pesquisa/urban-medium/v2/manhattan-high.rou.xml"/>
    </netedit>

    <report>
        <aggregate-warnings value="5"/>
    </report>

</configuration>
-->

<routes xmlns:xsi="http://www.w3.org/2001/XMLSchema-instance" xsi:noNamespaceSchemaLocation="http://sumo.dlr.de/xsd/routes_file.xsd">
    <vType id="myType" maxSpeed="13.80" vClass="passenger"/>
    <vehicle id="0" type="myType" depart="0.00">
        <route edges="465101198#0 5671620#1 526571477#1 526571477#2 587038012 428569356 420598373 -438390724 -420519634#1 -489019753#2 -489019753#0 194926839#1 194926839#2 420872201#1 420872201#2 194923807#0 194923807#1 194923807#2 380099776 626226775#0 626226775#1" color="yellow"/>
    </vehicle>
    <vehicle id="1" type="myType" depart="0.02">
        <route edges="420499931#0 420496529 458166892#0 458166892#1 195743343#0 5671442#0" color="yellow"/>
    </vehicle>
    <vehicle id="2" type="myType" depart="0.03">
        <route edges="46581216#1 46334597#0 46334597#1 5671317 226040996#0 420514149#1 447001270 385668565#0 385668565#1 458166896#2 46334598#4" color="yellow"/>
    </vehicle>
    <vehicle id="3" type="myType" depart="0.05">
        <route edges="5670600 496983397#1 496983396#0 587038081#1 46522006#0 46522006#1 5673231 458166893#0 458166893#2 458166895#0 458166895#1 587038101 46469720#0 46469720#1" color="yellow"/>
    </vehicle>
    <vehicle id="4" type="myType" depart="0.07">
        <route edges="619277989#1 619277989#2 420872190 420872184 222299248#0 5672487#0 5672487#1 5672487#3 5672487#5 5672487#7 5672487#10 5672487#11 587061854" color="yellow"/>
    </vehicle>
    <vehicle id="5" type="myType" depart="0.08">
        <route edges="415849235#2 5671693#0 420499932#0 420499932#2 542096279#0 542096279#1 458166894#0 195743182#0 483236728#1 68674961#4 226041001#2 226041001#3" color="yellow"/>
    </vehicle>
    <vehicle id="6" type="myType" depart="0.10">
        <route edges="447001271#2 464515614#0 5671317 226040996#0 464683341#1 464683339#0 464683339#1 464683339#2 464683319 464683322" color="yellow"/>
    </vehicle>
    <vehicle id="7" type="myType" depart="0.11">
        <route edges="511973084#0 388240124#0 597821267#0 597821267#2 597821267#3 420872193#0 420872193#1 420872186 420872181 335935799#0 335935799#1 489019753#0 489019753#1 -5671774#19 5671774#17" color="yellow"/>
    </vehicle>
    <vehicle id="8" type="myType" depart="0.13">
        <route edges="5671349#3 226041000#0 226041000#1 226041000#2 226041000#3 226041000#4 226040999 226041001#0 226041001#2 226041001#3" color="yellow"/>
    </vehicle>
    <vehicle id="9" type="myType" depart="0.15">
        <route edges="46490538#1 46490538#2 46490538#3 46490538#5 46490538#6 68668519#0 68668519#1 460606347#0 460606347#1 460606347#2 439933932#1 496982024#0 496983397#1 496983396#0 587038081#1 384649120#1 384649120#2 542257009#1 542257009#2" color="yellow"/>
    </vehicle>
    <vehicle id="10" type="myType" depart="0.16">
        <route edges="518451327#1 541351705 -542096278#2 -542096278#1 -587038129#1 554083352#0 118400729#1 118400729#5 118400729#6 118400729#9 118400729#12 420872194#0 381474197#1 420872190 420872184 222299248#0 222299248#1 420872191 380096992#1 619277987#1 619277987#2 194923807#6 194923807#9 438384743 5670485 619277989#0 619277989#1 619277989#2" color="yellow"/>
    </vehicle>
    <vehicle id="11" type="myType" depart="0.18">
        <route edges="542257009#5 438385431#5 420496529 5673231 458166893#0 458166893#2 458166895#0 458166895#1 46469722 421852619#1 421852619#2 421852618#0 421852618#1 420872188#1 118400729#1 118400729#5 118400729#6 118400729#9" color="yellow"/>
    </vehicle>
    <vehicle id="12" type="myType" depart="0.20">
        <route edges="421852618#1 46469732#0 518451327#0 518451327#1 46469731#0 46469731#1 46469731#2 46469731#3 458166892#1 195743343#0 195743343#1 588168464" color="yellow"/>
    </vehicle>
    <vehicle id="13" type="myType" depart="0.21">
        <route edges="464683329#1 456308944 46334599#0 46334599#1 5671774#17 -489019753#2 -489019753#0 194926839#1 194926839#2 420872201#1 420872201#2 194923807#0 194923807#1 194923807#2 194923807#3 194923807#6 194923807#9 438384743" color="yellow"/>
    </vehicle>
    <vehicle id="14" type="myType" depart="0.23">
        <route edges="420872201#1 420872201#2 -420872201#2 -420872201#1 -420872201#0 -194926839#1 489019753#0 489019753#1 489019754#0 221157083#0 388240124#0 388240124#3 388240124#6 388240124#9 388240124#12 388240124#15 388240124#18 388240124#21 540356239#4 540356239#6 540356239#7 5673380#2 -571651963" color="yellow"/>
    </vehicle>
    <vehicle id="15" type="myType" depart="0.25">
        <route edges="46490538#1 46490538#2 46490538#3 46490538#5 46490538#6 68668519#0 68668519#1 460606347#0 460606347#1 460606347#2 439933932#1 496982024#0 496983397#1 496983396#0 587038081#1 46522006#0 46522006#1 5673231 458166893#0 458166893#2 458166895#0 458166895#1 46469722 421852619#1 421852619#2 46334595#0" color="yellow"/>
    </vehicle>
    <vehicle id="16" type="myType" depart="0.26">
        <route edges="46522006#1 5673231 458166893#0 458166893#2 458166895#0 458166895#1 587038101" color="yellow"/>
    </vehicle>
    <vehicle id="17" type="myType" depart="0.28">
        <route edges="-5671620#1 5671620#1 526571477#1 526571477#2 5671393#1 5671393#2 667597422#0 196117042#0 196117042#1 196117042#2 447001272#0 226040996#0 226040998#0 226040998#1 226040995#0 226040997#2 226040997#3 226040997#4 226040997#5 226040997#6 222299276#2 222299276#3 222299276#4 222299276#5" color="yellow"/>
    </vehicle>
    <vehicle id="18" type="myType" depart="0.30">
        <route edges="385668565#1 458166896#2 458166896#3 458166896#4 458166896#6 458166896#9 458166896#12 458166896#15 458166896#17 584971399 5671472" color="yellow"/>
    </vehicle>
    <vehicle id="19" type="myType" depart="0.31">
        <route edges="226041001#0 226041001#2 226041001#3 226041001#4 226041001#5 438385431#4 438385431#5 420496529 458166892#0 458166892#1 195743343#0 195743343#1 588168464 46490538#0 46490538#1 46490538#2 46490538#3 46490538#5 46490538#6 68668519#0 68668519#1 460606348#1 693345069#1" color="yellow"/>
    </vehicle>
    <vehicle id="20" type="myType" depart="0.33">
        <route edges="-420872209 46469732#0 518451327#0 518451327#1 46469731#0 46469731#1 46469731#2 46469731#3 458166892#1 195743343#0 195743343#1 588168464 464515614#0 464515614#1 464515614#2 464515614#3 587061854 68668552#1 483704511#1 5672965#2 5672965#3" color="yellow"/>
    </vehicle>
    <vehicle id="21" type="myType" depart="0.34">
        <route edges="196117090#6 196117090#7 630828586#0 630828586#1 630828586#2 489019752#0 489019752#1 489019752#2 489019752#3 226041019 46334597#0 46334597#1 5671317 226040996#0 226040998#0 458166896#4 226040993#5" color="yellow"/>
    </vehicle>
    <vehicle id="22" type="myType" depart="0.36">
        <route edges="573476359#1 464683344 464683341#0 464683341#1 464683339#0 464683339#1 464683339#2 464683319 464683336 525768550 -438390724 5671472 46334599#1 46334599#3" color="yellow"/>
    </vehicle>
    <vehicle id="23" type="myType" depart="0.38">
        <route edges="-380096992#1 420872193#0 511973084#0 388240124#0 388240124#3 388240124#6 388240124#9 388240124#12 226040995#0 226040997#2 226040997#3 226040997#4" color="yellow"/>
    </vehicle>
    <vehicle id="24" type="myType" depart="0.39">
        <route edges="226040997#6 222299276#2 222299276#3 222299276#4 222299276#5 222299276#8 222299276#9 144001606#1 144001605#1 144001605#3 420872177 368938760#0" color="yellow"/>
    </vehicle>
    <vehicle id="25" type="myType" depart="0.41">
        <route edges="420514149#0 226040998#0 458166896#4 458166896#6 458166896#9 458166896#12 428569470#2 428569470#4 597821267#0 597821267#2 597821267#3 420872193#0 511973084#0" color="yellow"/>
    </vehicle>
    <vehicle id="26" type="myType" depart="0.43">
        <route edges="226041000#3 226041000#4 226040999 458177133#1 458177133#2 458177128#0 68674968#2 68674961#2" color="yellow"/>
    </vehicle>
    <vehicle id="27" type="myType" depart="0.44">
        <route edges="-46139021 46139021 381477004#0 46201642#0 381477008#0 380147339 46469720#0 46469720#1 458177129 518451322 541351705 458166896#0 540356239#6 540356239#7 5673380#2 -571651963" color="yellow"/>
    </vehicle>
    <vehicle id="28" type="myType" depart="0.46">
        <route edges="46334597#0 46334597#1 464515614#1 464515614#2 464515614#3 587061854 68668552#1 483704511#1 543717203#2 543717203#3 526571477#1 526571477#2 5671393#1 5670466" color="yellow"/>
    </vehicle>
    <vehicle id="29" type="myType" depart="0.48">
        <route edges="421852618#1 46469732#0 518451327#0 518451327#1 541351705 458166896#0 540356239#6" color="yellow"/>
    </vehicle>
    <vehicle id="30" type="myType" depart="0.49">
        <route edges="388240124#3 388240124#6 388240124#9 226040993#0 226040993#2 226040993#3 458166896#6 458166896#9" color="yellow"/>
    </vehicle>
    <vehicle id="31" type="myType" depart="0.51">
        <route edges="221157083#0 388240124#0 388240124#3 388240124#6 388240124#9 388240124#12 388240124#15 46334598#0 46334598#2 46334598#3 46334598#4 447001271#1 447001271#2 46490538#0 46490538#1" color="yellow"/>
    </vehicle>
    <vehicle id="32" type="myType" depart="0.52">
        <route edges="597821267#2 597821267#3 380096992#1 619277987#1 619277987#2 194923807#6 194923807#9 438384743 222299276#0 222299276#2 222299276#3 222299276#4 222299276#5 5672190#2 -5672190#2" color="yellow"/>
    </vehicle>
    <vehicle id="33" type="myType" depart="0.54">
        <route edges="420496529 5673231 458166893#0 458166893#2 458166895#0 458166895#1 46469722 421852619#1 421852619#2 421852618#0 421852618#1 420872188#1 118400729#1 118400729#5 118400729#6 118400729#9 118400729#12 420872194#0 381474197#1 420872190" color="yellow"/>
    </vehicle>
    <vehicle id="34" type="myType" depart="0.56">
        <route edges="460606347#1 460606347#2 439933932#1 496982024#0 -496982022#0 195743343#0 195743343#1 588168464 464515614#0 464515614#1 464515614#2 464515614#3 587061854 68668552#1 483704511#1 543717203#2 543717203#3 526571477#1 526571477#2 587038012 428569356 420598373 -438390724 -420519634#1 -489019753#2 -489019753#0" color="yellow"/>
    </vehicle>
    <vehicle id="35" type="myType" depart="0.57">
        <route edges="222299276#5 5672190#2 5672190#3 5672190#4 540356239#1 540356239#2 540356239#4 540356239#6 540356239#7 5673380#2 -571651963" color="yellow"/>
    </vehicle>
    <vehicle id="36" type="myType" depart="0.59">
        <route edges="458177128#2 195743182#0 483236728#1 68674968#1 68674968#2 68674968#3 68674968#4 68674965 573476359#1 464683344 464683341#0 464683341#1 464683339#0 464683339#1 464683339#2 464683319 464683336 525768550 464683329#0 46334599#0" color="yellow"/>
    </vehicle>
    <vehicle id="37" type="myType" depart="0.61">
        <route edges="222299276#9 556075521 -420872204 118400729#1 118400729#5 118400729#6 118400729#9 5672992#0 46334598#0 46334598#2 46334598#3 458166896#3" color="yellow"/>
    </vehicle>
    <vehicle id="38" type="myType" depart="0.62">
        <route edges="118400729#9 118400729#12 420872194#0 381474197#1 222299258#0 226040993#0 226040993#2 226040993#3 226040993#5 464683339#0 464683339#1" color="yellow"/>
    </vehicle>
    <vehicle id="39" type="myType" depart="0.64">
        <route edges="368938761#2 5671349#0 5671349#2 46139021 381477004#0 46201642#0 46469729 157014137#0 157014137#1 157014137#2 421852618#0 421852618#1 420872188#1 118400729#1 118400729#5 118400729#6 118400729#9 118400729#12 420872194#0 381474197#1 420872190 420872184 222299248#0 222299248#1 420872191 420872193#0 420872193#1 420872186 420872181 335935799#0 335935799#1 489019753#0 489019753#1 489019754#0 221157083#0" color="yellow"/>
    </vehicle>
    <vehicle id="40" type="myType" depart="0.66">
        <route edges="626226775#1 626226775#2 626226775#3 626226775#4 420872193#1 420872186 420872181 335935799#0 335935799#1 194926839#1 194926839#2 420872201#1 420872201#2 194923807#0 194923807#1 194923807#2 194923807#3 194923807#6 194923807#9 438384743 222299276#0" color="yellow"/>
    </vehicle>
    <vehicle id="41" type="myType" depart="0.67">
        <route edges="5670317#5 5670317#7 46469732#0 518451327#0 518451327#1 541351705 458166896#0 458166896#1 458166896#2 458166896#3 458166896#4 458166896#6 458166896#9 458166896#12 458166896#15 458166896#17 584971399 5671472 630828554 5670673#1" color="yellow"/>
    </vehicle>
    <vehicle id="42" type="myType" depart="0.69">
        <route edges="68668541#0 541330444 196117090#6 196117090#7 630828586#0 630828586#1 630828586#2 489019752#0 489019752#1 489019752#2 489019752#3 489019752#4 68668519#0 68668519#1 460606347#0 460606347#1 460606347#2 439933932#1 496982024#0 496983397#1 496983396#0 587038081#1 46522006#0 46522006#1 5673231 458166894#0 195743182#0 195743182#2 226041001#5 438385431#4" color="yellow"/>
    </vehicle>
    <vehicle id="43" type="myType" depart="0.70">
        <route edges="518451327#1 46469731#0 68674961#1 68674961#2 68674968#2" color="yellow"/>
    </vehicle>
    <vehicle id="44" type="myType" depart="0.72">
        <route edges="447001272#0 226040996#0 226040998#0 226040998#1 226040995#0 381474197#1 420872190 420872184 222299248#0 222299248#1 420872191 380096992#1 619277987#1 619277987#2 194923807#6 194923807#9 438384743 5670485" color="yellow"/>
    </vehicle>
    <vehicle id="45" type="myType" depart="0.74">
        <route edges="-526571477#2 526571477#2 5671393#1 5670466 525768549#1" color="yellow"/>
    </vehicle>
    <vehicle id="46" type="myType" depart="0.75">
        <route edges="458177133#1 458177133#2 458177129 458166895#0 458166895#1 46469722 421852619#1 421852619#2 421852618#0 421852618#1 420872188#1 118400729#1 118400729#5" color="yellow"/>
    </vehicle>
    <vehicle id="47" type="myType" depart="0.77">
        <route edges="194926839#2 420872201#1 420872201#2 194923807#0 194923807#1 194923807#2 194923807#3 194923807#6 194923807#9 438384743 5670485 619277989#0 619277989#1 619277989#2 222299258#0" color="yellow"/>
    </vehicle>
    <vehicle id="48" type="myType" depart="0.79">
        <route edges="226040997#6 222299276#2 222299276#3 222299276#4 222299276#5 222299276#8 222299276#9 144001606#1 144001605#1 144001605#3 420872177 368938762#0 368938761#0 368938761#2 5671349#0 5671349#2 5671349#3 226041000#0 226041000#1 226041000#2 226041000#3" color="yellow"/>
    </vehicle>
    <vehicle id="49" type="myType" depart="0.80">
        <route edges="542257009#1 542257009#2 542257009#4 542257009#5 483236728#0 483236728#1 483236728#3 458177133#2 458177129 518451322 541351705 458166896#0 458166896#1 458166896#2 458166896#3 458166896#4 458166896#6 458166896#9 458166896#12 458166896#15 458166896#17 584971399 -420519634#1 -5671774#19 -5671774#16" color="yellow"/>
    </vehicle>
    <vehicle id="50" type="myType" depart="0.82">
        <route edges="543717203#3 -5671620#1 -465101198#1 630828586#0 630828586#1 630828586#2 489019752#0 489019752#1 489019752#2 489019752#3 489019752#4 68668519#0 68668519#1 460606347#0 460606347#1 460606347#2 439933932#1 496982024#0 496983397#1 496983396#0 587038081#1 384649120#1 384649120#2 542257009#1 542257009#2 542257009#4 542257009#5" color="yellow"/>
    </vehicle>
    <vehicle id="51" type="myType" depart="0.84">
        <route edges="335935799#0 335935799#1 489019753#0 489019753#1 489019754#0 221157083#0 388240124#0 388240124#3 388240124#6 388240124#9 388240124#12 388240124#15 388240124#18 388240124#21 587061869#0 587061869#2 554083353#0 554083353#2 587038101 458166897#0 458166897#1 458166897#2 226040999 458177133#1 483236728#4 483236728#5" color="yellow"/>
    </vehicle>
    <vehicle id="52" type="myType" depart="0.85">
        <route edges="573476359#1 5673380#0 5673380#2 68674961#0 46469731#1 46469731#2 46469731#3 458166892#1 5670600 496983397#1 496983396#0" color="yellow"/>
    </vehicle>
    <vehicle id="53" type="myType" depart="0.87">
        <route edges="222299276#4 222299276#5 5672190#2 5672190#3 5672190#4 540356239#1 540356239#2 540356239#4 458166896#1 458166896#2 458166896#3 458166896#4 458166896#6 458166896#9 458166896#12 458166896#15 458166896#17 584971399 438390724 -420598373 -428569356 -587038012 587038012 428569356 420598373" color="yellow"/>
    </vehicle>
    <vehicle id="54" type="myType" depart="0.89">
        <route edges="458166893#0 68674968#3 46469731#2 46469731#3 458166892#1 195743343#0 195743343#1 588168464 464515614#0 464515614#1 464515614#2 464515614#3 587061854 68668552#1 483704511#1 5672965#2 5672965#3 34080508#1 68668541#0 541330444 196117090#6 196117090#7" color="yellow"/>
    </vehicle>
    <vehicle id="55" type="myType" depart="0.90">
        <route edges="144001605#3 420872177 368938760#0 368938760#1 664660185 46201642#0 381477008#0 380147339 46469720#0 46469720#1 458177128#0 68674968#2 68674968#3 68674968#4 68674965 573476359#1 464683344 464683341#0 464683341#1 464683339#0" color="yellow"/>
    </vehicle>
    <vehicle id="56" type="myType" depart="0.92">
        <route edges="222299276#2 222299276#3 222299276#4 222299276#5 5672190#2 5672190#3 5672190#4 118400729#5 118400729#6 118400729#9 118400729#12 420872194#0 381474197#1 420872190 420872184 222299248#0 222299248#1 420872191 420872193#0 420872193#1 420872186 420872181 335935799#0 335935799#1 194926839#1 194926839#2 420872201#1 420872201#2 194923807#0 194923807#1 194923807#2 380099776 626226775#0 626226775#1 626226775#2 626226775#3 626226775#4" color="yellow"/>
    </vehicle>
    <vehicle id="57" type="myType" depart="0.93">
        <route edges="46334595#0 46334595#1 381480256#1 144001605#3 420872177 368938760#0 368938760#1 664660185 46201642#0 381477008#0 380147339 46469720#0 46469720#1 458177128#0 68674968#2 68674968#3 68674968#4 68674965 573476359#1 464683344 464683341#0 464683341#1 464683339#0 464683339#1 464683339#2" color="yellow"/>
    </vehicle>
    <vehicle id="58" type="myType" depart="0.95">
        <route edges="420901668 420901683#0 381477008#0 5673626#0 5673626#1 226041000#4 226040999 458177133#1" color="yellow"/>
    </vehicle>
    <vehicle id="59" type="myType" depart="0.97">
        <route edges="46469731#2 542096279#1 458166893#0 458166893#2 518451322 541351705 458166896#0 458166896#1 458166896#2 458166896#3 458166896#4 458166896#6 458166896#9 458166896#12 458166896#15 458166896#17 584971399 -420519634#1 -489019753#2 -489019753#0" color="yellow"/>
    </vehicle>
    <vehicle id="60" type="myType" depart="0.98">
        <route edges="226041000#3 226041000#4 226040999 226041001#0" color="yellow"/>
    </vehicle>
    <vehicle id="61" type="myType" depart="1.00">
        <route edges="453367786#3 453367786#4 368938761#0 368938761#2 5671349#0 5671349#2 5671349#3 226041000#0 226041000#1 226041000#2 226041000#3 226041000#4 226040999 458177133#1 458177133#2 458177128#0 68674968#2 68674968#3 68674968#4 68674965 46520833#1 420499932#2 -420904658 -384178814" color="yellow"/>
    </vehicle>
    <vehicle id="62" type="myType" depart="1.02">
        <route edges="420514149#1 447001270 385668565#0 385668565#1 385668565#2 385668565#3 385668565#5 385668565#7 385668565#8 118400729#9 5672992#0" color="yellow"/>
    </vehicle>
    <vehicle id="63" type="myType" depart="1.03">
        <route edges="46334597#1 5671317 226040996#0 420514149#1 447001270 385668565#0 385668565#1 385668565#2 385668565#3 385668565#5 385668565#7 385668565#8 118400729#9" color="yellow"/>
    </vehicle>
    <vehicle id="64" type="myType" depart="1.05">
        <route edges="222299276#2 222299276#3 222299276#4 222299276#5 222299276#8 222299276#9 556075521 -420872204 -554083352#1 587038129#0 554083353#0 518451327#1 46469731#0 46469731#1 68674968#4" color="yellow"/>
    </vehicle>
    <vehicle id="65" type="myType" depart="1.07">
        <route edges="5671401#4 458166896#9 458166896#12 458166896#15 409716177 464683336 525768550 464683329#0 46334599#0" color="yellow"/>
    </vehicle>
    <vehicle id="66" type="myType" depart="1.08">
        <route edges="420499932#2 -420904658 -384178814 -571651963 -542096278#2 -542096278#1 -587038129#1 554083352#0 118400729#1 118400729#5 118400729#6 118400729#9 118400729#12 420872194#0 381474197#1 420872190 420872184 222299248#0 222299248#1 420872191 420872193#0 420872193#1 420872186 420872181 335935799#0 335935799#1 194926839#1 194926839#2 420872201#1 420872201#2 194923807#0 194923807#1 194923807#2 380099776 626226775#0 626226775#1 626226775#2 626226775#3 626226775#4" color="yellow"/>
    </vehicle>
    <vehicle id="67" type="myType" depart="1.10">
        <route edges="5669669#0 5669669#1 46581216#3 46581216#4 46581216#5 46581216#6 46334600#0 68668552#1 483704511#1 491162341#1" color="yellow"/>
    </vehicle>
    <vehicle id="68" type="myType" depart="1.11">
        <route edges="5672487#1 388240124#6 388240124#9 388240124#12 388240124#15 388240124#18 388240124#21 587061869#0 587061869#2 554083353#0 554083353#2 587038101 458166897#0 458166897#1 458166897#2 226040999 226041001#0 226041001#2 226041001#3 226041001#4" color="yellow"/>
    </vehicle>
    <vehicle id="69" type="myType" depart="1.13">
        <route edges="464515614#3 587061854 5669875#0 5669875#1 5669875#2 196117042#0 196117042#1 196117042#2 447001272#0 447001272#1 447001272#2 195743165#0 5673380#0 5673380#2 -571651963 -542096278#2 -542096278#1 -587038129#1 554083352#0 118400729#1 540356239#1 540356239#2" color="yellow"/>
    </vehicle>
    <vehicle id="70" type="myType" depart="1.15">
        <route edges="626226775#1 626226775#2 626226775#3 626226775#4 511973084#0 388240124#0 388240124#3 388240124#6 388240124#9 388240124#12 388240124#15 388240124#18 388240124#21 587061869#0 587061869#2 542096278#0 542096278#2 571651963 68674961#0" color="yellow"/>
    </vehicle>
    <vehicle id="71" type="myType" depart="1.16">
        <route edges="194923808#5 194923808#7 194923808#8 194923807#0 194923807#1 194923807#2 194923807#3 194923807#6 194923807#9 438384743 222299276#0 222299276#2 222299276#3 222299276#4 222299276#5 222299276#8 222299276#9 556075521 -420872204 -554083352#1 587038129#0 554083353#0 554083353#2 46469722" color="yellow"/>
    </vehicle>
    <vehicle id="72" type="myType" depart="1.18">
        <route edges="420872193#1 420872186 420872181 335935799#0 335935799#1 489019753#0 489019753#1 489019754#0 221157083#0 388240124#0 388240124#3 388240124#6 388240124#9 226040993#0 226040993#2 226040993#3 226040993#5 420514148#1 226040992 5669669#0 5669669#1 46581216#3 46581216#4 5670719#13 5670719#14" color="yellow"/>
    </vehicle>
    <vehicle id="73" type="myType" depart="1.20">
        <route edges="458166896#15 458166896#17 195745914#0 221157083#0 388240124#0 388240124#3 388240124#6 388240124#9 388240124#12 226040995#0 226040997#2 226040997#3 226040997#4 226040997#5 226040997#6 222299276#2 222299276#3 222299276#4 222299276#5 222299276#8 222299276#9 556075521 -420872204" color="yellow"/>
    </vehicle>
    <vehicle id="74" type="myType" depart="1.21">
        <route edges="420872204 46139023#1 5670317#7 46469732#0 518451327#0 518451327#1 541351705 458166896#0 458166896#1 458166896#2 458166896#3 458166896#4 458166896#6 458166896#9 458166896#12" color="yellow"/>
    </vehicle>
    <vehicle id="75" type="myType" depart="1.23">
        <route edges="226040999 458177133#1 458177133#2 458177129 518451322 541351705 458166896#0 458166896#1 458166896#2 458166896#3 226040998#1 388240124#15 46334598#0 46334598#2 46334598#3" color="yellow"/>
    </vehicle>
    <vehicle id="76" type="myType" depart="1.25">
        <route edges="5670719#14 464515614#3 5670296#0 5670296#1 5670296#2 5670296#3 489019752#1 489019752#2 489019752#3 226041019 46581216#2" color="yellow"/>
    </vehicle>
    <vehicle id="77" type="myType" depart="1.26">
        <route edges="396444294#13 396444294#14 543717203#2 543717203#3 526571477#1 526571477#2 5671393#1 5671393#2 667597422#0 196117042#0 196117042#1 196117042#2 447001272#0 447001272#1 447001272#2 420499932#0 420499932#2 542096279#0 542096279#1 458166894#0 420499931#0 420904660#0" color="yellow"/>
    </vehicle>
    <vehicle id="78" type="myType" depart="1.28">
        <route edges="460606347#0 460606347#1 460606347#2 439933932#1 496982024#0 496983397#1 496983396#0 587038081#1 46522006#0 46522006#1 5673231 458166894#0 420499931#0" color="yellow"/>
    </vehicle>
    <vehicle id="79" type="myType" depart="1.29">
        <route edges="5672487#11 5670296#0 5670296#1 5670296#2 5670296#3 489019752#1 5670719#12 5670719#13 5670719#14" color="yellow"/>
    </vehicle>
    <vehicle id="80" type="myType" depart="1.31">
        <route edges="525768550 420519635#0 420519635#1 464683318 428569470#0 458166896#15" color="yellow"/>
    </vehicle>
    <vehicle id="81" type="myType" depart="1.33">
        <route edges="630828585#0 630828585#1 630828585#2 46334600#0 5669875#0 5669875#1 5669875#2 196117042#0 196117042#1 196117042#2 447001272#0 447001272#1 447001272#2 195743165#0 5673380#0 5673380#2 -571651963 -542096278#2 -542096278#1 -587038129#1 554083352#0 118400729#1 -5672190#4 -5672190#3 -5672190#2" color="yellow"/>
    </vehicle>
    <vehicle id="82" type="myType" depart="1.34">
        <route edges="-542096278#2 542096278#2 571651963 384178814 68674965 573476359#1 464683344 464683341#0 464683341#1 464683339#0 464683339#1 464683339#2 464683319 464683336 525768550 -420598373 -428569356 -587038012 587038012" color="yellow"/>
    </vehicle>
    <vehicle id="83" type="myType" depart="1.36">
        <route edges="483236728#1 483236728#3 458177133#2 458177129 458166895#0 458166895#1 46469722 421852619#1 421852619#2 421852618#0 421852618#1 420872188#1 118400729#1 118400729#5 118400729#6 118400729#9 118400729#12 420872194#0 381474197#1 420872190 420872184 222299248#0 222299248#1 420872191 420872193#0 420872193#1 420872186 420872181 335935799#0 335935799#1 194926839#1 194926839#2 420872201#1 420872201#2 194923807#0 194923807#1 -335935797#1 -335935797#0" color="yellow"/>
    </vehicle>
    <vehicle id="84" type="myType" depart="1.38">
        <route edges="420499932#0 420499932#2 -420904658 -384178814 -571651963 -542096278#2 -542096278#1 -587038129#1 554083352#0 420872204 46139023#1 46139023#4" color="yellow"/>
    </vehicle>
    <vehicle id="85" type="myType" depart="1.39">
        <route edges="483236728#0 483236728#1 483236728#3 458177133#2 458177129 458166895#0 458166895#1" color="yellow"/>
    </vehicle>
    <vehicle id="86" type="myType" depart="1.41">
        <route edges="5671315 -420904659 -420904658 -384178814 -571651963 -542096278#2 -542096278#1 -587038129#1 554083352#0 118400729#1 118400729#5 118400729#6 118400729#9 118400729#12 420872194#0 381474197#1 420872190 420872184 222299248#0 222299248#1 420872191 420872193#0 420872193#1 420872186 420872181 335935799#0 335935799#1 489019753#0" color="yellow"/>
    </vehicle>
    <vehicle id="87" type="myType" depart="1.43">
        <route edges="396444294#13 396444294#14 543717203#2 543717203#3 526571477#1 526571477#2 5671393#1 5671393#2 667597422#0 196117042#0 5672487#11 587061854 68668552#1" color="yellow"/>
    </vehicle>
    <vehicle id="88" type="myType" depart="1.44">
        <route edges="-335935797#1 335935797#1 194923807#2 380099776 626226775#0 626226775#1 626226775#2 626226775#3 626226775#4 511973084#0 388240124#0 388240124#3 5672487#3 5672487#5 5672487#7 5672487#10 5672487#11 587061854 68668552#1 483704511#1" color="yellow"/>
    </vehicle>
    <vehicle id="89" type="myType" depart="1.46">
        <route edges="542096279#1 458166894#0 420499931#0" color="yellow"/>
    </vehicle>
    <vehicle id="90" type="myType" depart="1.48">
        <route edges="5670673#0 5670673#1 5672211#0 5672211#2 5672211#3 5672211#6 541330444 196117090#6 196117090#7 630828586#0 630828586#1 630828586#2 489019752#0" color="yellow"/>
    </vehicle>
    <vehicle id="91" type="myType" depart="1.49">
        <route edges="368938760#0 368938760#1 664660185 46201642#0 381477008#0 380147339 46469720#0 46469720#1 458177128#0 68674961#3" color="yellow"/>
    </vehicle>
    <vehicle id="92" type="myType" depart="1.51">
        <route edges="526571477#2 5671393#1 5671393#2 667597422#0 196117042#0 196117042#1 196117042#2 447001272#0 226040996#0 226040998#0 226040998#1 226040995#0 226040997#2 226040997#3 226040997#4 226040997#5 226040997#6 222299276#2 222299276#3 222299276#4 222299276#5 222299276#8" color="yellow"/>
    </vehicle>
    <vehicle id="93" type="myType" depart="1.52">
        <route edges="630828585#2 46334600#0 5669875#0 5669875#1 5669875#2 464683321 196117051#0 196117051#1 196117051#2 420514149#0 420514149#1 447001270 385668565#0 385668565#1 385668565#2 385668565#3 385668565#5 385668565#7 385668565#8 118400729#9 5672992#0" color="yellow"/>
    </vehicle>
    <vehicle id="94" type="myType" depart="1.54">