<additional>
  <pType id="pType_0" reroute="true" departLane="best" departSpeed="random" maxSpeed="1.0"/>
</additional>
